version 2
run simpleNetwork-1-20231017-20:23:18-3693
attr configname simpleNetwork
attr datetime 20231017-20:23:18
attr experiment simpleNetwork
attr inifile omnetpp.ini
attr iterationvars "$nHost=60, $frac=2, $net=\"CAIN\", $rlType=\"Euclidean1\", $back=true, $mlEnable=true, $mlThresh=1500, $bthresh=50, $pwhresh=10, $com=50, $0=0.7, $mov=\"./movements/RWP-0.0.movements\""
attr iterationvarsf nHost=60,frac=2,net=CAIN,rlType=Euclidean1,back=true,mlEnable=true,mlThresh=1500,bthresh=50,pwhresh=10,com=50,0.7,mov=.#2fmovements#2fRWP-0.0.movements-
attr measurement "$nHost=60, $frac=2, $net=\"CAIN\", $rlType=\"Euclidean1\", $back=true, $mlEnable=true, $mlThresh=1500, $bthresh=50, $pwhresh=10, $com=50, $0=0.7, $mov=\"./movements/RWP-0.0.movements\""
attr network inet.examples.sixgen.simpleNetwork
attr processid 3693
attr repetition 1
attr replication #1
attr resultdir results
attr runnumber 1
attr seedset 1
itervar back true
itervar bthresh 50
itervar com 50
itervar frac 2
itervar mlEnable true
itervar mlThresh 1500
itervar mov "\"./movements/RWP-0.0.movements\""
itervar nHost 60
itervar net "\"CAIN\""
itervar pwhresh 10
itervar rlType "\"Euclidean1\""
param *.numHost 60
param *.numAntenna 5
param *.sprayFraction 2
param *.antenna[*].numApps 1
param *.antenna[*].app[0].typename "\"PingApp\""
param *.antenna[*].app[0].destAddr "\"*\""
param *.antenna[*].app[0].sendInterval 0.5s
param **.wlan[*].mac.typename "\"BMac\""
param *.antenna[*].wlan[*].radio.antenna.typename "\"ParabolicAntenna\""
param *.antenna[*].wlan[*].radio.antenna.beamWidth 30deg
param *.antenna[*].wlan[*].radio.antenna.minGain 18dB
param *.antenna[*].wlan[*].radio.antenna.maxGain -50dB
param *.physicalEnvironment.config "xmldoc(\"walls.xml\")"
param *.radioMedium.propagation.typename "\"ConstantSpeedPropagation\""
param *.radioMedium.propagation.propagationSpeed "299792458 mps"
param *.radioMedium.pathLoss.typename "\"LogNormalShadowing\""
param *.radioMedium.pathLoss.sigma 1.1
param *.radioMedium.obstacleLoss.typename "\"DielectricObstacleLoss\""
param **.wlan[*].bitrate 1Tbps
param **.networkType "\"CAIN\""
param **.rl_type "\"Euclidean1\""
param **.alphaRl 0.5
param **.backoffEnabled true
param **.mlEnable true
param **.mlThreshold 1500
param *.host[*].routing.batteryThresh 50
param *.host[*].routing.powerThresh 10
param **.wlan[*].radio.transmitter.communicationRange 50m
param *.visualizer.energyStorageVisualizer.displayEnergyStorages true
param *.host[*].numApps 1
param *.host[*].app[0].typename "\"PingApp\""
param *.host[*].app[0].startTime uniform(1s,5s)
param *.host[*].app[0].printPing true
param **.host[*].app[0].destAddr "\"*\""
param *.host[*].energyStorage.typename "\"SimpleEpEnergyStorage\""
param *.host[*].wlan[*].radio.energyConsumer.typename "\"StateBasedEpEnergyConsumer\""
param *.host[*].energyManagement.typename "\"SimpleEpEnergyManagement\""
param *.host[*].energyStorage.nominalCapacity 1J
param *.host[*].energyManagement.nodeShutdownCapacity 0
param *.host[*].energyManagement.nodeStartCapacity "0.5 * energyStorage.nominalCapacity"
param *.host[*].energyStorage.initialCapacity "uniform(0.7 * energyStorage.nominalCapacity, energyStorage.nominalCapacity)"
param *.host[*].energyGenerator.typename "\"AlternatingEpEnergyGenerator\""
param *.host[*].energyGenerator.powerGeneration 0mW
param *.host[*].energyGenerator.sleepInterval exponential(25s)
param *.host[*].energyGenerator.generationInterval exponential(25s)
param *.host*.wlan[*].radio.energyConsumer.offPowerConsumption 0mW
param *.host*.wlan[*].radio.energyConsumer.sleepPowerConsumption 1mW
param *.host*.wlan[*].radio.energyConsumer.switchingPowerConsumption 1mW
param *.host*.wlan[*].radio.energyConsumer.receiverIdlePowerConsumption 2mW
param *.host*.wlan[*].radio.energyConsumer.receiverBusyPowerConsumption 5mW
param *.host*.wlan[*].radio.energyConsumer.receiverReceivingPowerConsumption 10mW
param *.host*.wlan[*].radio.energyConsumer.transmitterIdlePowerConsumption 2mW
param *.host*.wlan[*].radio.energyConsumer.transmitterTransmittingPowerConsumption 100mW
param *.antenna[*].energyStorage.typename "\"SimpleEpEnergyStorage\""
param *.antenna[*].wlan[*].radio.energyConsumer.typename "\"StateBasedEpEnergyConsumer\""
param *.antenna[*].energyManagement.typename "\"SimpleEpEnergyManagement\""
param *.antenna[*].energyStorage.nominalCapacity 1J
param *.antenna[*].energyManagement.nodeShutdownCapacity 0
param *.antenna[*].energyManagement.nodeStartCapacity "0.5 * energyStorage.nominalCapacity"
param *.antenna[*].energyStorage.initialCapacity energyStorage.nominalCapacity
param *.antenna[*].energyGenerator.typename "\"AlternatingEpEnergyGenerator\""
param *.antenna[*].energyGenerator.powerGeneration 100mW
param *.antenna[*].energyGenerator.sleepInterval exponential(25s)
param *.antenna[*].energyGenerator.generationInterval exponential(25s)
param *.antenna[*].mobility.typename "\"BonnMotionMobility\""
param *.antenna[*].mobility.traceFile "\"./movements/line.movements\""
param *.antenna[*].mobility.nodeId -1
param *.host[*].mobility.typename "\"BonnMotionMobility\""
param *.host[*].mobility.traceFile "\"./movements/RWP-0.0.movements\""
param *.host[*].mobility.nodeId -1
param **.wlan[*].typename "\"AckingWirelessInterface\""
param **.wlan[*].mac.headerLength 23B
param **.wlan[*].radio.typename "\"UnitDiskRadio\""
param **.wlan[*].radio.transmitter.headerLength 96b
param **.wlan[*].radio.transmitter.interferenceRange 10m
param **.wlan[*].radio.transmitter.detectionRange 10m
param **.wlan[*].radio.receiver.ignoreInterference false
param **.hasStatus true

scalar simpleNetwork.Oracle startNodeSignal:last nan
attr interpolationmode none
attr title "Number of nodes that started, last"
scalar simpleNetwork.Oracle simulationEndSignal:last 230
attr interpolationmode none
attr title "Time that the simulation ended, last"
scalar simpleNetwork.Oracle chDowngradeSignal:count 124545
attr interpolationmode none
attr title "Number of downgraded CH, count"
scalar simpleNetwork.Oracle chDowngradeSignal:max 0
attr interpolationmode none
attr title "Number of downgraded CH, max"
scalar simpleNetwork.Oracle chDowngradeSignal:last 0
attr interpolationmode none
attr title "Number of downgraded CH, last"
scalar simpleNetwork.Oracle chUpgradeSignal:count 124545
attr interpolationmode none
attr title "Number of upgraded CH, count"
scalar simpleNetwork.Oracle chUpgradeSignal:max 0
attr interpolationmode none
attr title "Number of upgraded CH, max"
scalar simpleNetwork.Oracle chUpgradeSignal:last 0
attr interpolationmode none
attr title "Number of upgraded CH, last"
scalar simpleNetwork.Oracle numNoChSignal:count 124545
attr interpolationmode none
attr title "Number devices not connected to a CH, count"
scalar simpleNetwork.Oracle numNoChSignal:max 0
attr interpolationmode none
attr title "Number devices not connected to a CH, max"
scalar simpleNetwork.Oracle numNoChSignal:last 0
attr interpolationmode none
attr title "Number devices not connected to a CH, last"
scalar simpleNetwork.Oracle numActiveFullChSignal:count 124545
attr interpolationmode none
attr title "Number of actives full CH, count"
scalar simpleNetwork.Oracle numActiveFullChSignal:max 0
attr interpolationmode none
attr title "Number of actives full CH, max"
scalar simpleNetwork.Oracle numActiveFullChSignal:last 0
attr interpolationmode none
attr title "Number of actives full CH, last"
scalar simpleNetwork.Oracle numActiveSemiChSignal:count 124545
attr interpolationmode none
attr title "Number of actives semi CH, count"
scalar simpleNetwork.Oracle numActiveSemiChSignal:max 0
attr interpolationmode none
attr title "Number of actives semi CH, max"
scalar simpleNetwork.Oracle numActiveSemiChSignal:last 0
attr interpolationmode none
attr title "Number of actives semi CH, last"
scalar simpleNetwork.Oracle numActiveChSignal:count 124545
attr interpolationmode none
attr title "Number of actives CH, count"
scalar simpleNetwork.Oracle numActiveChSignal:max 0
attr interpolationmode none
attr title "Number of actives CH, max"
scalar simpleNetwork.Oracle numActiveChSignal:last 0
attr interpolationmode none
attr title "Number of actives CH, last"
scalar simpleNetwork.Oracle numSemiChSignal:count 124545
attr interpolationmode none
attr title "Number of semi CH, count"
scalar simpleNetwork.Oracle numSemiChSignal:max 0
attr interpolationmode none
attr title "Number of semi CH, max"
scalar simpleNetwork.Oracle numSemiChSignal:last 0
attr interpolationmode none
attr title "Number of semi CH, last"
scalar simpleNetwork.Oracle numChSignal:count 124545
attr interpolationmode none
attr title "Number of elected CH, count"
scalar simpleNetwork.Oracle numChSignal:max 0
attr interpolationmode none
attr title "Number of elected CH, max"
scalar simpleNetwork.Oracle numChSignal:last 0
attr interpolationmode none
attr title "Number of elected CH, last"
scalar simpleNetwork.radioMedium.propagation "Arrival computation count" 424384
scalar simpleNetwork.radioMedium.obstacleLoss "Obstacle loss intersection computation count" 9874656
scalar simpleNetwork.radioMedium.obstacleLoss "Obstacle loss intersection count" 646093
scalar simpleNetwork.radioMedium "transmission count" 6631
scalar simpleNetwork.radioMedium "signal send count" 424384
scalar simpleNetwork.radioMedium "reception computation count" 411444
scalar simpleNetwork.radioMedium "interference computation count" 1242645
scalar simpleNetwork.radioMedium "reception decision computation count" 9587
scalar simpleNetwork.radioMedium "listening decision computation count" 821614
scalar simpleNetwork.radioMedium "reception cache hit" 80.875496247322
attr unit %
scalar simpleNetwork.radioMedium "interference cache hit" 66.666666666667
attr unit %
scalar simpleNetwork.radioMedium "noise cache hit" 0
attr unit %
scalar simpleNetwork.radioMedium "snir cache hit" 50
attr unit %
scalar simpleNetwork.radioMedium "reception decision cache hit" 50
attr unit %
scalar simpleNetwork.radioMedium "reception result cache hit" 0
attr unit %
scalar simpleNetwork.host[0].energyStorage residualEnergyCapacity:last 0
attr interpolationmode linear
attr source residualEnergyCapacityChanged
attr title "Residual energy capacity, last"
scalar simpleNetwork.host[0].lo[0].lo rcvdPkFromHl:count 432
attr interpolationmode none
attr source packetReceivedFromUpper
attr title "packets received from higher layer, count"
scalar simpleNetwork.host[0].lo[0].lo rcvdPkFromHl:sum(packetBytes) 36288
attr interpolationmode none
attr source packetReceivedFromUpper
attr title "packets received from higher layer, sum(packetBytes)"
scalar simpleNetwork.host[0].lo[0].lo passedUpPk:count 432
attr interpolationmode none
attr source packetSentToUpper
attr title "packets passed to higher layer, count"
scalar simpleNetwork.host[0].lo[0].lo passedUpPk:sum(packetBytes) 36288
attr interpolationmode none
attr source packetSentToUpper
attr title "packets passed to higher layer, sum(packetBytes)"
scalar simpleNetwork.host[0].wlan[0].mac.queue packetPopped:count 120
attr interpolationmode none
attr title "packet popped, count"
scalar simpleNetwork.host[0].wlan[0].mac.queue packetPopped:sum(packetBytes) 7816
attr interpolationmode none
attr title "packet popped, sum(packetBytes)"
statistic simpleNetwork.host[0].wlan[0].mac.queue queueingTime:histogram
field count 120
field mean 0
field stddev 0
field min 0
field max 0
field sum 0
field sqrsum 0
attr interpolationmode none
attr source queueingTime(packetPopped)
attr title "queueing times, histogram"
attr unit s
bin	-inf	0
bin	-0.5	0
bin	-0.48	0
bin	-0.46	0
bin	-0.44	0
bin	-0.42	0
bin	-0.4	0
bin	-0.38	0
bin	-0.36	0
bin	-0.34	0
bin	-0.32	0
bin	-0.3	0
bin	-0.28	0
bin	-0.26	0
bin	-0.24	0
bin	-0.22	0
bin	-0.2	0
bin	-0.18	0
bin	-0.16	0
bin	-0.14	0
bin	-0.12	0
bin	-0.1	0
bin	-0.08	0
bin	-0.06	0
bin	-0.04	0
bin	-0.02	0
bin	0	120
bin	0.02	0
bin	0.04	0
bin	0.06	0
bin	0.08	0
bin	0.1	0
bin	0.12	0
bin	0.14	0
bin	0.16	0
bin	0.18	0
bin	0.2	0
bin	0.22	0
bin	0.24	0
bin	0.26	0
bin	0.28	0
bin	0.3	0
bin	0.32	0
bin	0.34	0
bin	0.36	0
bin	0.38	0
bin	0.4	0
bin	0.42	0
bin	0.44	0
bin	0.46	0
bin	0.48	0
bin	0.5	0
scalar simpleNetwork.host[0].wlan[0].mac.queue queueLength:max 1
attr interpolationmode sample-hold
attr source "count(packetPushed) - count(packetPopped) - count(packetRemoved) - count(packetDropped)"
attr title "queue length, max"
scalar simpleNetwork.host[0].wlan[0].mac.queue queueLength:timeavg 0
attr interpolationmode sample-hold
attr source "count(packetPushed) - count(packetPopped) - count(packetRemoved) - count(packetDropped)"
attr title "queue length, timeavg"
scalar simpleNetwork.host[0].wlan[0].mac.queue packetPushed:count 120
attr interpolationmode none
attr title "packet pushed, count"
scalar simpleNetwork.host[0].wlan[0].mac.queue packetPushed:sum(packetBytes) 7816
attr interpolationmode none
attr title "packet pushed, sum(packetBytes)"
scalar simpleNetwork.host[0].wlan[0].mac.queue packetDropQueueOverflow:count 0
attr interpolationmode none
attr source packetDropReasonIsQueueOverflow(packetDropped)
attr title "packet drops: queue overflow, count"
scalar simpleNetwork.host[0].wlan[0].mac.queue packetDropQueueOverflow:sum(packetBytes) 0
attr interpolationmode none
attr source packetDropReasonIsQueueOverflow(packetDropped)
attr title "packet drops: queue overflow, sum(packetBytes)"
scalar simpleNetwork.host[0].wlan[0].mac.queue packetRemoved:count 0
attr interpolationmode none
attr title "packets removed, count"
scalar simpleNetwork.host[0].wlan[0].mac.queue packetRemoved:sum(packetBytes) 0
attr interpolationmode none
attr title "packets removed, sum(packetBytes)"
scalar simpleNetwork.host[0].wlan[0].mac rcvdPkFromLl:count 105
attr interpolationmode none
attr source packetReceivedFromLower
attr title "packets received from lower layer, count"
scalar simpleNetwork.host[0].wlan[0].mac rcvdPkFromLl:sum(packetBytes) 9451
attr interpolationmode none
attr source packetReceivedFromLower
attr title "packets received from lower layer, sum(packetBytes)"
scalar simpleNetwork.host[0].wlan[0].mac sentDownPk:count 120
attr interpolationmode none
attr source packetSentToLower
attr title "packets sent to lower layer, count"
scalar simpleNetwork.host[0].wlan[0].mac sentDownPk:sum(packetBytes) 10576
attr interpolationmode none
attr source packetSentToLower
attr title "packets sent to lower layer, sum(packetBytes)"
scalar simpleNetwork.host[0].wlan[0].mac rcvdPkFromHl:count 120
attr interpolationmode none
attr source packetReceivedFromUpper
attr title "packets received from higher layer, count"
scalar simpleNetwork.host[0].wlan[0].mac rcvdPkFromHl:sum(packetBytes) 7816
attr interpolationmode none
attr source packetReceivedFromUpper
attr title "packets received from higher layer, sum(packetBytes)"
scalar simpleNetwork.host[0].wlan[0].mac passedUpPk:count 81
attr interpolationmode none
attr source packetSentToUpper
attr title "packets passed to higher layer, count"
scalar simpleNetwork.host[0].wlan[0].mac passedUpPk:sum(packetBytes) 5788
attr interpolationmode none
attr source packetSentToUpper
attr title "packets passed to higher layer, sum(packetBytes)"
scalar simpleNetwork.host[0].wlan[0].mac packetDropIncorrectlyReceived:count 24
attr interpolationmode none
attr source packetDropReasonIsIncorrectlyReceived(packetDropped)
attr title "packet drop: incorrectly received, count"
scalar simpleNetwork.host[0].wlan[0].mac packetDropIncorrectlyReceived:sum(packetBytes) 1800
attr interpolationmode none
attr source packetDropReasonIsIncorrectlyReceived(packetDropped)
attr title "packet drop: incorrectly received, sum(packetBytes)"
scalar simpleNetwork.host[0].wlan[0].mac packetDropInterfaceDown:count 0
attr interpolationmode none
attr source packetDropReasonIsInterfaceDown(packetDropped)
attr title "packet drop: interface down, count"
scalar simpleNetwork.host[0].wlan[0].mac packetDropInterfaceDown:sum(packetBytes) 0
attr interpolationmode none
attr source packetDropReasonIsInterfaceDown(packetDropped)
attr title "packet drop: interface down, sum(packetBytes)"
scalar simpleNetwork.host[0].wlan[0].mac packetDropNotAddressedToUs:count 0
attr interpolationmode none
attr source packetDropReasonIsNotAddressedToUs(packetDropped)
attr title "packet drop: not addressed to us, count"
scalar simpleNetwork.host[0].wlan[0].mac packetDropNotAddressedToUs:sum(packetBytes) 0
attr interpolationmode none
attr source packetDropReasonIsNotAddressedToUs(packetDropped)
attr title "packet drop: not addressed to us, sum(packetBytes)"
scalar simpleNetwork.host[0].wlan[0].mac linkBroken:count 0
attr interpolationmode none
attr source linkBroken
attr title "link break, count"
scalar simpleNetwork.host[0].wlan[0].radio radioMode:count 4
attr interpolationmode sample-hold
attr source radioModeChanged
attr title "Radio mode, count"
scalar simpleNetwork.host[0].wlan[0].radio receptionState:count 212
attr interpolationmode sample-hold
attr source receptionStateChanged
attr title "Radio reception state, count"
scalar simpleNetwork.host[0].wlan[0].radio transmissionState:count 198
attr interpolationmode sample-hold
attr source transmissionStateChanged
attr title "Radio transmission state, count"
statistic simpleNetwork.host[0].wlan[0].radio minSnir:histogram
field count 0
field mean -nan
field stddev -nan
field min -nan
field max -nan
field sum 0
field sqrsum 0
attr source minimumSnir(packetSentToUpper)
attr title "Min SNIR, histogram"
bin	-inf	0
bin	0	0
bin	1	0
statistic simpleNetwork.host[0].wlan[0].radio packetErrorRate:histogram
field count 105
field mean 0.22857142857143
field stddev 0.42192650784465
field min 0
field max 1
field sum 24
field sqrsum 24
attr source packetErrorRate(packetSentToUpper)
attr title "Packet error rate, histogram"
bin	-inf	0
bin	0	81
bin	1	24
bin	2	0
statistic simpleNetwork.host[0].wlan[0].radio bitErrorRate:histogram
field count 105
field mean 0.22857142857143
field stddev 0.42192650784465
field min 0
field max 1
field sum 24
field sqrsum 24
attr source bitErrorRate(packetSentToUpper)
attr title "Bit error rate, histogram"
bin	-inf	0
bin	0	81
bin	1	24
bin	2	0
statistic simpleNetwork.host[0].wlan[0].radio symbolErrorRate:histogram
field count 105
field mean 0.22857142857143
field stddev 0.42192650784465
field min 0
field max 1
field sum 24
field sqrsum 24
attr source symbolErrorRate(packetSentToUpper)
attr title "Symbol error rate, histogram"
bin	-inf	0
bin	0	81
bin	1	24
bin	2	0
scalar simpleNetwork.host[0].ipv4.ip packetDropAddressResolutionFailed:count 0
attr interpolationmode none
attr source packetDropReasonIsAddressResolutionFailed(packetDropped)
attr title "packet drop: address resolution failed, count"
scalar simpleNetwork.host[0].ipv4.ip packetDropAddressResolutionFailed:sum(packetBytes) 0
attr interpolationmode none
attr source packetDropReasonIsAddressResolutionFailed(packetDropped)
attr title "packet drop: address resolution failed, sum(packetBytes)"
scalar simpleNetwork.host[0].ipv4.ip packetDropHopLimitReached:count 0
attr interpolationmode none
attr source packetDropReasonIsHopLimitReached(packetDropped)
attr title "packet drop: hop limit reached, count"
scalar simpleNetwork.host[0].ipv4.ip packetDropHopLimitReached:sum(packetBytes) 0
attr interpolationmode none
attr source packetDropReasonIsHopLimitReached(packetDropped)
attr title "packet drop: hop limit reached, sum(packetBytes)"
scalar simpleNetwork.host[0].ipv4.ip packetDropForwardingDisabled:count 0
attr interpolationmode none
attr source packetDropReasonIsForwardingDisabled(packetDropped)
attr title "packet drop: forwarding disabled, count"
scalar simpleNetwork.host[0].ipv4.ip packetDropForwardingDisabled:sum(packetBytes) 0
attr interpolationmode none
attr source packetDropReasonIsForwardingDisabled(packetDropped)
attr title "packet drop: forwarding disabled, sum(packetBytes)"
scalar simpleNetwork.host[0].ipv4.ip packetDropNoInterfaceFound:count 0
attr interpolationmode none
attr source packetDropReasonIsNoInterfaceFound(packetDropped)
attr title "packet drop: no interface found, count"
scalar simpleNetwork.host[0].ipv4.ip packetDropNoInterfaceFound:sum(packetBytes) 0
attr interpolationmode none
attr source packetDropReasonIsNoInterfaceFound(packetDropped)
attr title "packet drop: no interface found, sum(packetBytes)"
scalar simpleNetwork.host[0].ipv4.ip packetDropNoRouteFound:count 0
attr interpolationmode none
attr source packetDropReasonIsNoRouteFound(packetDropped)
attr title "packet drop: no route found, count"
scalar simpleNetwork.host[0].ipv4.ip packetDropNoRouteFound:sum(packetBytes) 0
attr interpolationmode none
attr source packetDropReasonIsNoRouteFound(packetDropped)
attr title "packet drop: no route found, sum(packetBytes)"
scalar simpleNetwork.host[0].ipv4.ip packetDropUndefined:count 0
attr interpolationmode none
attr source packetDropReasonIsUndefined(packetDropped)
attr title "packet drop: undefined, count"
scalar simpleNetwork.host[0].ipv4.ip packetDropUndefined:sum(packetBytes) 0
attr interpolationmode none
attr source packetDropReasonIsUndefined(packetDropped)
attr title "packet drop: undefined, sum(packetBytes)"
scalar simpleNetwork.host[0].ipv4.arp arpResolutionFailed:count 0
attr title "ARP failed resolutions, count"
scalar simpleNetwork.host[0].ipv4.arp arpResolutionCompleted:count 1
attr title "ARP completed resolutions, count"
scalar simpleNetwork.host[0].ipv4.arp arpResolutionInitiated:count 0
attr title "ARP initiated resolutions, count"
scalar simpleNetwork.host[0].ipv4.arp arpReplySent:count 1
attr source arpReplySent
attr title "ARP replies sent, count"
scalar simpleNetwork.host[0].ipv4.arp arpReplySent:sum(packetBytes) 28
attr source arpReplySent
attr title "ARP replies sent, sum(packetBytes)"
scalar simpleNetwork.host[0].ipv4.arp arpRequestSent:count 0
attr source arpRequestSent
attr title "ARP request sent, count"
scalar simpleNetwork.host[0].ipv4.arp arpRequestSent:sum(packetBytes) 0
attr source arpRequestSent
attr title "ARP request sent, sum(packetBytes)"
scalar simpleNetwork.host[0].udp packetReceived:count 30
attr interpolationmode none
attr source packetReceived
attr title "packets received, count"
scalar simpleNetwork.host[0].udp packetReceived:sum(packetBytes) 960
attr interpolationmode none
attr source packetReceived
attr title "packets received, sum(packetBytes)"
scalar simpleNetwork.host[0].udp packetSent:count 69
attr interpolationmode none
attr source packetSent
attr title "packets sent, count"
scalar simpleNetwork.host[0].udp packetSent:sum(packetBytes) 2208
attr interpolationmode none
attr source packetSent
attr title "packets sent, sum(packetBytes)"
scalar simpleNetwork.host[0].udp passedUpPk:count 30
attr interpolationmode none
attr source packetSentToUpper
attr title "packets passed up, count"
scalar simpleNetwork.host[0].udp droppedPkWrongPort:count 0
attr interpolationmode none
attr source packetDropReasonIsNoPortFound(packetDropped)
attr title "packets dropped (wrong port), count"
scalar simpleNetwork.host[0].udp droppedPkBadChecksum:count 0
attr interpolationmode none
attr source packetDropReasonIsIncorrectlyReceived(packetDropped)
attr title "packets dropped (checksum error), count"
scalar simpleNetwork.host[0].app[0] pingRxSeq:count 216
attr interpolationmode none
attr title "ping rx seq, count"
scalar simpleNetwork.host[0].app[0] pingTxSeq:count 216
attr interpolationmode none
attr title "ping tx seq, count"
scalar simpleNetwork.host[0].app[0] numOutOfOrderArrivals:last nan
attr interpolationmode none
attr title "ping out-of-order arrivals, last"
scalar simpleNetwork.host[0].app[0] numLost:last nan
attr interpolationmode none
attr title "pings lost, last"
statistic simpleNetwork.host[0].app[0] rtt:histogram
field count 0
field mean -nan
field stddev -nan
field min -nan
field max -nan
field sum 0
field sqrsum 0
attr interpolationmode none
attr title "ping round-trip time, histogram"
attr unit s
bin	-inf	0
bin	0	0
bin	1	0
scalar simpleNetwork.host[0].routing recFwdAntennaMsgSignal:count 0
attr interpolationmode none
attr title "sent antenna message, count"
scalar simpleNetwork.host[0].routing recFwdAntennaMsgSignal:max -nan
attr interpolationmode none
attr title "sent antenna message, max"
scalar simpleNetwork.host[0].routing recFwdAntennaMsgSignal:last nan
attr interpolationmode none
attr title "sent antenna message, last"
scalar simpleNetwork.host[0].routing sentAntennaMsgSignal:count 0
attr interpolationmode none
attr title "sent antenna message, count"
scalar simpleNetwork.host[0].routing sentAntennaMsgSignal:max -nan
attr interpolationmode none
attr title "sent antenna message, max"
scalar simpleNetwork.host[0].routing sentAntennaMsgSignal:last nan
attr interpolationmode none
attr title "sent antenna message, last"
scalar simpleNetwork.host[0].routing recAntennaMsgSignal:count 0
attr interpolationmode none
attr title "received antenna message, count"
scalar simpleNetwork.host[0].routing recAntennaMsgSignal:max -nan
attr interpolationmode none
attr title "received antenna message, max"
scalar simpleNetwork.host[0].routing recAntennaMsgSignal:last nan
attr interpolationmode none
attr title "received antenna message, last"
scalar simpleNetwork.host[0].routing recWeightMsgSignal:count 21
attr interpolationmode none
attr title "received weight message, count"
scalar simpleNetwork.host[0].routing recWeightMsgSignal:max 21
attr interpolationmode none
attr title "received weight message, max"
scalar simpleNetwork.host[0].routing recWeightMsgSignal:last 21
attr interpolationmode none
attr title "received weight message, last"
scalar simpleNetwork.host[0].routing respMapSizeSignal:count 0
attr interpolationmode none
attr title "respMapSizeSignal, count"
scalar simpleNetwork.host[0].routing respMapSizeSignal:max -nan
attr interpolationmode none
attr title "respMapSizeSignal, max"
scalar simpleNetwork.host[0].routing respMapSizeSignal:last nan
attr interpolationmode none
attr title "respMapSizeSignal, last"
scalar simpleNetwork.host[0].routing distMapSizeSignal:count 97
attr interpolationmode none
attr title "distMapSizeSignal, count"
scalar simpleNetwork.host[0].routing distMapSizeSignal:max 2
attr interpolationmode none
attr title "distMapSizeSignal, max"
scalar simpleNetwork.host[0].routing distMapSizeSignal:last 2
attr interpolationmode none
attr title "distMapSizeSignal, last"
scalar simpleNetwork.host[0].routing sendProbSignal:count 97
attr interpolationmode none
attr title "Send probability, count"
scalar simpleNetwork.host[0].routing sendProbSignal:max 50
attr interpolationmode none
attr title "Send probability, max"
scalar simpleNetwork.host[0].routing sendProbSignal:last 50
attr interpolationmode none
attr title "Send probability, last"
scalar simpleNetwork.host[0].routing hopCountSignal:count 0
attr interpolationmode none
attr title "hop count, count"
scalar simpleNetwork.host[0].routing hopCountSignal:max -nan
attr interpolationmode none
attr title "hop count, max"
scalar simpleNetwork.host[0].routing hopCountSignal:last nan
attr interpolationmode none
attr title "hop count, last"
scalar simpleNetwork.host[0].routing nodeEndingSignal:count 13
attr interpolationmode none
attr title "Node end, count"
scalar simpleNetwork.host[0].routing nodeEndingSignal:max 216
attr interpolationmode none
attr title "Node end, max"
scalar simpleNetwork.host[0].routing nodeEndingSignal:last 216
attr interpolationmode none
attr title "Node end, last"
scalar simpleNetwork.host[0].routing batteryDecaySignal:count 2154
attr interpolationmode none
attr title "Battery decay, count"
scalar simpleNetwork.host[0].routing batteryDecaySignal:max 86
attr interpolationmode none
attr title "Battery decay, max"
scalar simpleNetwork.host[0].routing batteryDecaySignal:last 0
attr interpolationmode none
attr title "Battery decay, last"
scalar simpleNetwork.host[0].routing powerThreshSignal:count 0
attr interpolationmode none
attr title "Power thresh, count"
scalar simpleNetwork.host[0].routing powerThreshSignal:max -nan
attr interpolationmode none
attr title "Power thresh, max"
scalar simpleNetwork.host[0].routing powerThreshSignal:last nan
attr interpolationmode none
attr title "Power thresh, last"
scalar simpleNetwork.host[0].routing timeSignal:count 0
attr interpolationmode none
attr title "delay, count"
scalar simpleNetwork.host[0].routing timeSignal:max -nan
attr interpolationmode none
attr title "delay, max"
scalar simpleNetwork.host[0].routing timeSignal:last nan
attr interpolationmode none
attr title "delay, last"
scalar simpleNetwork.host[0].routing distSignal:count 0
attr interpolationmode none
attr title "Distance from sender to destination, count"
scalar simpleNetwork.host[0].routing distSignal:max -nan
attr interpolationmode none
attr title "Distance from sender to destination, max"
scalar simpleNetwork.host[0].routing distSignal:last nan
attr interpolationmode none
attr title "Distance from sender to destination, last"
scalar simpleNetwork.host[0].routing sentBrapMsgSignal:count 0
attr interpolationmode none
attr title "Number of CAIN BRAP messages sent, count"
scalar simpleNetwork.host[0].routing sentBrapMsgSignal:max -nan
attr interpolationmode none
attr title "Number of CAIN BRAP messages sent, max"
scalar simpleNetwork.host[0].routing sentBrapMsgSignal:last nan
attr interpolationmode none
attr title "Number of CAIN BRAP messages sent, last"
scalar simpleNetwork.host[0].routing recBrapMsgSignal:count 0
attr interpolationmode none
attr title "Number of CAIN BRAP messages received, count"
scalar simpleNetwork.host[0].routing recBrapMsgSignal:max -nan
attr interpolationmode none
attr title "Number of CAIN BRAP messages received, max"
scalar simpleNetwork.host[0].routing recBrapMsgSignal:last nan
attr interpolationmode none
attr title "Number of CAIN BRAP messages received, last"
scalar simpleNetwork.host[0].routing sentSprMsgSignal:count 0
attr interpolationmode none
attr title "Number of CAIN SPRAY messages sent, count"
scalar simpleNetwork.host[0].routing sentSprMsgSignal:max -nan
attr interpolationmode none
attr title "Number of CAIN SPRAY messages sent, max"
scalar simpleNetwork.host[0].routing sentSprMsgSignal:last nan
attr interpolationmode none
attr title "Number of CAIN SPRAY messages sent, last"
scalar simpleNetwork.host[0].routing recSprMsgSignal:count 0
attr interpolationmode none
attr title "Number of CAIN SPRAY messages received, count"
scalar simpleNetwork.host[0].routing recSprMsgSignal:max -nan
attr interpolationmode none
attr title "Number of CAIN SPRAY messages received, max"
scalar simpleNetwork.host[0].routing recSprMsgSignal:last nan
attr interpolationmode none
attr title "Number of CAIN SPRAY messages received, last"
scalar simpleNetwork.host[0].routing sentLarMsgSignal:count 0
attr interpolationmode none
attr title "Number of CAIN LAR messages sent, count"
scalar simpleNetwork.host[0].routing sentLarMsgSignal:max -nan
attr interpolationmode none
attr title "Number of CAIN LAR messages sent, max"
scalar simpleNetwork.host[0].routing sentLarMsgSignal:last nan
attr interpolationmode none
attr title "Number of CAIN LAR messages sent, last"
scalar simpleNetwork.host[0].routing recLarMsgSignal:count 0
attr interpolationmode none
attr title "Number of CAIN LAR messages received, count"
scalar simpleNetwork.host[0].routing recLarMsgSignal:max -nan
attr interpolationmode none
attr title "Number of CAIN LAR messages received, max"
scalar simpleNetwork.host[0].routing recLarMsgSignal:last nan
attr interpolationmode none
attr title "Number of CAIN LAR messages received, last"
scalar simpleNetwork.host[0].routing sentCainRREQFwdMsgSignal:count 0
attr interpolationmode none
attr title "Number of CAIN RREQFWD messages sent, count"
scalar simpleNetwork.host[0].routing sentCainRREQFwdMsgSignal:max -nan
attr interpolationmode none
attr title "Number of CAIN RREQFWD messages sent, max"
scalar simpleNetwork.host[0].routing sentCainRREQFwdMsgSignal:last nan
attr interpolationmode none
attr title "Number of CAIN RREQFWD messages sent, last"
scalar simpleNetwork.host[0].routing recCainRREQFwdMsgSignal:count 0
attr interpolationmode none
attr title "Number of CAIN RREQFWD messages received, count"
scalar simpleNetwork.host[0].routing recCainRREQFwdMsgSignal:max -nan
attr interpolationmode none
attr title "Number of CAIN RREQFWD messages received, max"
scalar simpleNetwork.host[0].routing recCainRREQFwdMsgSignal:last nan
attr interpolationmode none
attr title "Number of CAIN RREQFWD messages received, last"
scalar simpleNetwork.host[0].routing recCainRREPMsgSignal:count 0
attr interpolationmode none
attr title "Number of CAIN RREP messages received, count"
scalar simpleNetwork.host[0].routing recCainRREPMsgSignal:max -nan
attr interpolationmode none
attr title "Number of CAIN RREP messages received, max"
scalar simpleNetwork.host[0].routing recCainRREPMsgSignal:last nan
attr interpolationmode none
attr title "Number of CAIN RREP messages received, last"
scalar simpleNetwork.host[0].routing sentCainRREPMsgSignal:count 0
attr interpolationmode none
attr title "Number of CAIN RREP messages sent, count"
scalar simpleNetwork.host[0].routing sentCainRREPMsgSignal:max -nan
attr interpolationmode none
attr title "Number of CAIN RREP messages sent, max"
scalar simpleNetwork.host[0].routing sentCainRREPMsgSignal:last nan
attr interpolationmode none
attr title "Number of CAIN RREP messages sent, last"
scalar simpleNetwork.host[0].routing recCainRREQMsgSignal:count 0
attr interpolationmode none
attr title "Number of CAIN RREQ messages received, count"
scalar simpleNetwork.host[0].routing recCainRREQMsgSignal:max -nan
attr interpolationmode none
attr title "Number of CAIN RREQ messages received, max"
scalar simpleNetwork.host[0].routing recCainRREQMsgSignal:last nan
attr interpolationmode none
attr title "Number of CAIN RREQ messages received, last"
scalar simpleNetwork.host[0].routing sentCainRREQMsgSignal:count 0
attr interpolationmode none
attr title "Number of CAIN RREQ messages sent, count"
scalar simpleNetwork.host[0].routing sentCainRREQMsgSignal:max -nan
attr interpolationmode none
attr title "Number of CAIN RREQ messages sent, max"
scalar simpleNetwork.host[0].routing sentCainRREQMsgSignal:last nan
attr interpolationmode none
attr title "Number of CAIN RREQ messages sent, last"
scalar simpleNetwork.host[0].routing recCainErrMsgSignal:count 0
attr interpolationmode none
attr title "Number of CAIN ERR messages received, count"
scalar simpleNetwork.host[0].routing recCainErrMsgSignal:max -nan
attr interpolationmode none
attr title "Number of CAIN ERR messages received, max"
scalar simpleNetwork.host[0].routing recCainErrMsgSignal:last nan
attr interpolationmode none
attr title "Number of CAIN ERR messages received, last"
scalar simpleNetwork.host[0].routing sentCainErrMsgSignal:count 0
attr interpolationmode none
attr title "Number of CAIN ERR messages sent, count"
scalar simpleNetwork.host[0].routing sentCainErrMsgSignal:max -nan
attr interpolationmode none
attr title "Number of CAIN ERR messages sent, max"
scalar simpleNetwork.host[0].routing sentCainErrMsgSignal:last nan
attr interpolationmode none
attr title "Number of CAIN ERR messages sent, last"
scalar simpleNetwork.host[0].routing recCainHopMsgSignal:count 2
attr interpolationmode none
attr title "Number of CAIN HOP messages received, count"
scalar simpleNetwork.host[0].routing recCainHopMsgSignal:max 2
attr interpolationmode none
attr title "Number of CAIN HOP messages received, max"
scalar simpleNetwork.host[0].routing recCainHopMsgSignal:last 2
attr interpolationmode none
attr title "Number of CAIN HOP messages received, last"
scalar simpleNetwork.host[0].routing sentCainHopMsgSignal:count 1
attr interpolationmode none
attr title "Number of CAIN HOP messages sent, count"
scalar simpleNetwork.host[0].routing sentCainHopMsgSignal:max 1
attr interpolationmode none
attr title "Number of CAIN HOP messages sent, max"
scalar simpleNetwork.host[0].routing sentCainHopMsgSignal:last 1
attr interpolationmode none
attr title "Number of CAIN HOP messages sent, last"
scalar simpleNetwork.host[0].routing recCainRespMsgSignal:count 0
attr interpolationmode none
attr title "Number of CAIN RESP messages received, count"
scalar simpleNetwork.host[0].routing recCainRespMsgSignal:max -nan
attr interpolationmode none
attr title "Number of CAIN RESP messages received, max"
scalar simpleNetwork.host[0].routing recCainRespMsgSignal:last nan
attr interpolationmode none
attr title "Number of CAIN RESP messages received, last"
scalar simpleNetwork.host[0].routing sentCainRespMsgSignal:count 0
attr interpolationmode none
attr title "Number of CAIN RESP messages sent, count"
scalar simpleNetwork.host[0].routing sentCainRespMsgSignal:max -nan
attr interpolationmode none
attr title "Number of CAIN RESP messages sent, max"
scalar simpleNetwork.host[0].routing sentCainRespMsgSignal:last nan
attr interpolationmode none
attr title "Number of CAIN RESP messages sent, last"
scalar simpleNetwork.host[0].routing recCainReqMsgSignal:count 1
attr interpolationmode none
attr title "Number of CAIN REQ messages received, count"
scalar simpleNetwork.host[0].routing recCainReqMsgSignal:max 1
attr interpolationmode none
attr title "Number of CAIN REQ messages received, max"
scalar simpleNetwork.host[0].routing recCainReqMsgSignal:last 1
attr interpolationmode none
attr title "Number of CAIN REQ messages received, last"
scalar simpleNetwork.host[0].routing sentCainReqMsgSignal:count 97
attr interpolationmode none
attr title "Number of CAIN REQ messages sent, count"
scalar simpleNetwork.host[0].routing sentCainReqMsgSignal:max 97
attr interpolationmode none
attr title "Number of CAIN REQ messages sent, max"
scalar simpleNetwork.host[0].routing sentCainReqMsgSignal:last 97
attr interpolationmode none
attr title "Number of CAIN REQ messages sent, last"
scalar simpleNetwork.host[0].routing sentCainFwdMsgSignal:count 0
attr interpolationmode none
attr title "Number of CAIN FWD message sent, count"
scalar simpleNetwork.host[0].routing sentCainFwdMsgSignal:max -nan
attr interpolationmode none
attr title "Number of CAIN FWD message sent, max"
scalar simpleNetwork.host[0].routing sentCainFwdMsgSignal:last nan
attr interpolationmode none
attr title "Number of CAIN FWD message sent, last"
scalar simpleNetwork.host[0].routing recCainFwdMsgSignal:mean -nan
attr interpolationmode none
attr title "Number of CAIN FWD message received, mean"
scalar simpleNetwork.host[0].routing recCainFwdMsgSignal:count 0
attr interpolationmode none
attr title "Number of CAIN FWD message received, count"
scalar simpleNetwork.host[0].routing recCainFwdMsgSignal:max -nan
attr interpolationmode none
attr title "Number of CAIN FWD message received, max"
scalar simpleNetwork.host[0].routing recCainFwdMsgSignal:last nan
attr interpolationmode none
attr title "Number of CAIN FWD message received, last"
scalar simpleNetwork.host[0].routing cainMsgSignal:count 0
attr interpolationmode none
attr title "Number of CAIN messages received, count"
scalar simpleNetwork.host[0].routing cainMsgSignal:max -nan
attr interpolationmode none
attr title "Number of CAIN messages received, max"
scalar simpleNetwork.host[0].routing cainMsgSignal:last nan
attr interpolationmode none
attr title "Number of CAIN messages received, last"
scalar simpleNetwork.host[0].routing connectedDevsSignal:count 0
attr interpolationmode none
attr title "Number of connected devices to a CH, count"
scalar simpleNetwork.host[0].routing connectedDevsSignal:max -nan
attr interpolationmode none
attr title "Number of connected devices to a CH, max"
scalar simpleNetwork.host[0].routing connectedDevsSignal:last nan
attr interpolationmode none
attr title "Number of connected devices to a CH, last"
scalar simpleNetwork.host[1].energyStorage residualEnergyCapacity:last 0
attr interpolationmode linear
attr source residualEnergyCapacityChanged
attr title "Residual energy capacity, last"
scalar simpleNetwork.host[1].lo[0].lo rcvdPkFromHl:count 0
attr interpolationmode none
attr source packetReceivedFromUpper
attr title "packets received from higher layer, count"
scalar simpleNetwork.host[1].lo[0].lo rcvdPkFromHl:sum(packetBytes) 0
attr interpolationmode none
attr source packetReceivedFromUpper
attr title "packets received from higher layer, sum(packetBytes)"
scalar simpleNetwork.host[1].lo[0].lo passedUpPk:count 0
attr interpolationmode none
attr source packetSentToUpper
attr title "packets passed to higher layer, count"
scalar simpleNetwork.host[1].lo[0].lo passedUpPk:sum(packetBytes) 0
attr interpolationmode none
attr source packetSentToUpper
attr title "packets passed to higher layer, sum(packetBytes)"
scalar simpleNetwork.host[1].wlan[0].mac.queue packetPopped:count 71
attr interpolationmode none
attr title "packet popped, count"
scalar simpleNetwork.host[1].wlan[0].mac.queue packetPopped:sum(packetBytes) 3692
attr interpolationmode none
attr title "packet popped, sum(packetBytes)"
statistic simpleNetwork.host[1].wlan[0].mac.queue queueingTime:histogram
field count 71
field mean 0
field stddev 0
field min 0
field max 0
field sum 0
field sqrsum 0
attr interpolationmode none
attr source queueingTime(packetPopped)
attr title "queueing times, histogram"
attr unit s
bin	-inf	0
bin	-0.5	0
bin	-0.48	0
bin	-0.46	0
bin	-0.44	0
bin	-0.42	0
bin	-0.4	0
bin	-0.38	0
bin	-0.36	0
bin	-0.34	0
bin	-0.32	0
bin	-0.3	0
bin	-0.28	0
bin	-0.26	0
bin	-0.24	0
bin	-0.22	0
bin	-0.2	0
bin	-0.18	0
bin	-0.16	0
bin	-0.14	0
bin	-0.12	0
bin	-0.1	0
bin	-0.08	0
bin	-0.06	0
bin	-0.04	0
bin	-0.02	0
bin	0	71
bin	0.02	0
bin	0.04	0
bin	0.06	0
bin	0.08	0
bin	0.1	0
bin	0.12	0
bin	0.14	0
bin	0.16	0
bin	0.18	0
bin	0.2	0
bin	0.22	0
bin	0.24	0
bin	0.26	0
bin	0.28	0
bin	0.3	0
bin	0.32	0
bin	0.34	0
bin	0.36	0
bin	0.38	0
bin	0.4	0
bin	0.42	0
bin	0.44	0
bin	0.46	0
bin	0.48	0
bin	0.5	0
scalar simpleNetwork.host[1].wlan[0].mac.queue queueLength:max 1
attr interpolationmode sample-hold
attr source "count(packetPushed) - count(packetPopped) - count(packetRemoved) - count(packetDropped)"
attr title "queue length, max"
scalar simpleNetwork.host[1].wlan[0].mac.queue queueLength:timeavg 0
attr interpolationmode sample-hold
attr source "count(packetPushed) - count(packetPopped) - count(packetRemoved) - count(packetDropped)"
attr title "queue length, timeavg"
scalar simpleNetwork.host[1].wlan[0].mac.queue packetPushed:count 71
attr interpolationmode none
attr title "packet pushed, count"
scalar simpleNetwork.host[1].wlan[0].mac.queue packetPushed:sum(packetBytes) 3692
attr interpolationmode none
attr title "packet pushed, sum(packetBytes)"
scalar simpleNetwork.host[1].wlan[0].mac.queue packetDropQueueOverflow:count 0
attr interpolationmode none
attr source packetDropReasonIsQueueOverflow(packetDropped)
attr title "packet drops: queue overflow, count"
scalar simpleNetwork.host[1].wlan[0].mac.queue packetDropQueueOverflow:sum(packetBytes) 0
attr interpolationmode none
attr source packetDropReasonIsQueueOverflow(packetDropped)
attr title "packet drops: queue overflow, sum(packetBytes)"
scalar simpleNetwork.host[1].wlan[0].mac.queue packetRemoved:count 0
attr interpolationmode none
attr title "packets removed, count"
scalar simpleNetwork.host[1].wlan[0].mac.queue packetRemoved:sum(packetBytes) 0
attr interpolationmode none
attr title "packets removed, sum(packetBytes)"
scalar simpleNetwork.host[1].wlan[0].mac rcvdPkFromLl:count 78
attr interpolationmode none
attr source packetReceivedFromLower
attr title "packets received from lower layer, count"
scalar simpleNetwork.host[1].wlan[0].mac rcvdPkFromLl:sum(packetBytes) 5850
attr interpolationmode none
attr source packetReceivedFromLower
attr title "packets received from lower layer, sum(packetBytes)"
scalar simpleNetwork.host[1].wlan[0].mac sentDownPk:count 71
attr interpolationmode none
attr source packetSentToLower
attr title "packets sent to lower layer, count"
scalar simpleNetwork.host[1].wlan[0].mac sentDownPk:sum(packetBytes) 5325
attr interpolationmode none
attr source packetSentToLower
attr title "packets sent to lower layer, sum(packetBytes)"
scalar simpleNetwork.host[1].wlan[0].mac rcvdPkFromHl:count 71
attr interpolationmode none
attr source packetReceivedFromUpper
attr title "packets received from higher layer, count"
scalar simpleNetwork.host[1].wlan[0].mac rcvdPkFromHl:sum(packetBytes) 3692
attr interpolationmode none
attr source packetReceivedFromUpper
attr title "packets received from higher layer, sum(packetBytes)"
scalar simpleNetwork.host[1].wlan[0].mac passedUpPk:count 53
attr interpolationmode none
attr source packetSentToUpper
attr title "packets passed to higher layer, count"
scalar simpleNetwork.host[1].wlan[0].mac passedUpPk:sum(packetBytes) 2756
attr interpolationmode none
attr source packetSentToUpper
attr title "packets passed to higher layer, sum(packetBytes)"
scalar simpleNetwork.host[1].wlan[0].mac packetDropIncorrectlyReceived:count 25
attr interpolationmode none
attr source packetDropReasonIsIncorrectlyReceived(packetDropped)
attr title "packet drop: incorrectly received, count"
scalar simpleNetwork.host[1].wlan[0].mac packetDropIncorrectlyReceived:sum(packetBytes) 1875
attr interpolationmode none
attr source packetDropReasonIsIncorrectlyReceived(packetDropped)
attr title "packet drop: incorrectly received, sum(packetBytes)"
scalar simpleNetwork.host[1].wlan[0].mac packetDropInterfaceDown:count 0
attr interpolationmode none
attr source packetDropReasonIsInterfaceDown(packetDropped)
attr title "packet drop: interface down, count"
scalar simpleNetwork.host[1].wlan[0].mac packetDropInterfaceDown:sum(packetBytes) 0
attr interpolationmode none
attr source packetDropReasonIsInterfaceDown(packetDropped)
attr title "packet drop: interface down, sum(packetBytes)"
scalar simpleNetwork.host[1].wlan[0].mac packetDropNotAddressedToUs:count 0
attr interpolationmode none
attr source packetDropReasonIsNotAddressedToUs(packetDropped)
attr title "packet drop: not addressed to us, count"
scalar simpleNetwork.host[1].wlan[0].mac packetDropNotAddressedToUs:sum(packetBytes) 0
attr interpolationmode none
attr source packetDropReasonIsNotAddressedToUs(packetDropped)
attr title "packet drop: not addressed to us, sum(packetBytes)"
scalar simpleNetwork.host[1].wlan[0].mac linkBroken:count 0
attr interpolationmode none
attr source linkBroken
attr title "link break, count"
scalar simpleNetwork.host[1].wlan[0].radio radioMode:count 4
attr interpolationmode sample-hold
attr source radioModeChanged
attr title "Radio mode, count"
scalar simpleNetwork.host[1].wlan[0].radio receptionState:count 158
attr interpolationmode sample-hold
attr source receptionStateChanged
attr title "Radio reception state, count"
scalar simpleNetwork.host[1].wlan[0].radio transmissionState:count 98
attr interpolationmode sample-hold
attr source transmissionStateChanged
attr title "Radio transmission state, count"
statistic simpleNetwork.host[1].wlan[0].radio minSnir:histogram
field count 0
field mean -nan
field stddev -nan
field min -nan
field max -nan
field sum 0
field sqrsum 0
attr source minimumSnir(packetSentToUpper)
attr title "Min SNIR, histogram"
bin	-inf	0
bin	0	0
bin	1	0
statistic simpleNetwork.host[1].wlan[0].radio packetErrorRate:histogram
field count 78
field mean 0.32051282051282
field stddev 0.46969428420274
field min 0
field max 1
field sum 25
field sqrsum 25
attr source packetErrorRate(packetSentToUpper)
attr title "Packet error rate, histogram"
bin	-inf	0
bin	0	53
bin	1	25
bin	2	0
statistic simpleNetwork.host[1].wlan[0].radio bitErrorRate:histogram
field count 78
field mean 0.32051282051282
field stddev 0.46969428420274
field min 0
field max 1
field sum 25
field sqrsum 25
attr source bitErrorRate(packetSentToUpper)
attr title "Bit error rate, histogram"
bin	-inf	0
bin	0	53
bin	1	25
bin	2	0
statistic simpleNetwork.host[1].wlan[0].radio symbolErrorRate:histogram
field count 78
field mean 0.32051282051282
field stddev 0.46969428420274
field min 0
field max 1
field sum 25
field sqrsum 25
attr source symbolErrorRate(packetSentToUpper)
attr title "Symbol error rate, histogram"
bin	-inf	0
bin	0	53
bin	1	25
bin	2	0
scalar simpleNetwork.host[1].ipv4.ip packetDropAddressResolutionFailed:count 0
attr interpolationmode none
attr source packetDropReasonIsAddressResolutionFailed(packetDropped)
attr title "packet drop: address resolution failed, count"
scalar simpleNetwork.host[1].ipv4.ip packetDropAddressResolutionFailed:sum(packetBytes) 0
attr interpolationmode none
attr source packetDropReasonIsAddressResolutionFailed(packetDropped)
attr title "packet drop: address resolution failed, sum(packetBytes)"
scalar simpleNetwork.host[1].ipv4.ip packetDropHopLimitReached:count 0
attr interpolationmode none
attr source packetDropReasonIsHopLimitReached(packetDropped)
attr title "packet drop: hop limit reached, count"
scalar simpleNetwork.host[1].ipv4.ip packetDropHopLimitReached:sum(packetBytes) 0
attr interpolationmode none
attr source packetDropReasonIsHopLimitReached(packetDropped)
attr title "packet drop: hop limit reached, sum(packetBytes)"
scalar simpleNetwork.host[1].ipv4.ip packetDropForwardingDisabled:count 0
attr interpolationmode none
attr source packetDropReasonIsForwardingDisabled(packetDropped)
attr title "packet drop: forwarding disabled, count"
scalar simpleNetwork.host[1].ipv4.ip packetDropForwardingDisabled:sum(packetBytes) 0
attr interpolationmode none
attr source packetDropReasonIsForwardingDisabled(packetDropped)
attr title "packet drop: forwarding disabled, sum(packetBytes)"
scalar simpleNetwork.host[1].ipv4.ip packetDropNoInterfaceFound:count 0
attr interpolationmode none
attr source packetDropReasonIsNoInterfaceFound(packetDropped)
attr title "packet drop: no interface found, count"
scalar simpleNetwork.host[1].ipv4.ip packetDropNoInterfaceFound:sum(packetBytes) 0
attr interpolationmode none
attr source packetDropReasonIsNoInterfaceFound(packetDropped)
attr title "packet drop: no interface found, sum(packetBytes)"
scalar simpleNetwork.host[1].ipv4.ip packetDropNoRouteFound:count 0
attr interpolationmode none
attr source packetDropReasonIsNoRouteFound(packetDropped)
attr title "packet drop: no route found, count"
scalar simpleNetwork.host[1].ipv4.ip packetDropNoRouteFound:sum(packetBytes) 0
attr interpolationmode none
attr source packetDropReasonIsNoRouteFound(packetDropped)
attr title "packet drop: no route found, sum(packetBytes)"
scalar simpleNetwork.host[1].ipv4.ip packetDropUndefined:count 0
attr interpolationmode none
attr source packetDropReasonIsUndefined(packetDropped)
attr title "packet drop: undefined, count"
scalar simpleNetwork.host[1].ipv4.ip packetDropUndefined:sum(packetBytes) 0
attr interpolationmode none
attr source packetDropReasonIsUndefined(packetDropped)
attr title "packet drop: undefined, sum(packetBytes)"
scalar simpleNetwork.host[1].ipv4.arp arpResolutionFailed:count 0
attr title "ARP failed resolutions, count"
scalar simpleNetwork.host[1].ipv4.arp arpResolutionCompleted:count 0
attr title "ARP completed resolutions, count"
scalar simpleNetwork.host[1].ipv4.arp arpResolutionInitiated:count 0
attr title "ARP initiated resolutions, count"
scalar simpleNetwork.host[1].ipv4.arp arpReplySent:count 0
attr source arpReplySent
attr title "ARP replies sent, count"
scalar simpleNetwork.host[1].ipv4.arp arpReplySent:sum(packetBytes) 0
attr source arpReplySent
attr title "ARP replies sent, sum(packetBytes)"
scalar simpleNetwork.host[1].ipv4.arp arpRequestSent:count 0
attr source arpRequestSent
attr title "ARP request sent, count"
scalar simpleNetwork.host[1].ipv4.arp arpRequestSent:sum(packetBytes) 0
attr source arpRequestSent
attr title "ARP request sent, sum(packetBytes)"
scalar simpleNetwork.host[1].udp packetReceived:count 53
attr interpolationmode none
attr source packetReceived
attr title "packets received, count"
scalar simpleNetwork.host[1].udp packetReceived:sum(packetBytes) 1696
attr interpolationmode none
attr source packetReceived
attr title "packets received, sum(packetBytes)"
scalar simpleNetwork.host[1].udp packetSent:count 71
attr interpolationmode none
attr source packetSent
attr title "packets sent, count"
scalar simpleNetwork.host[1].udp packetSent:sum(packetBytes) 2272
attr interpolationmode none
attr source packetSent
attr title "packets sent, sum(packetBytes)"
scalar simpleNetwork.host[1].udp passedUpPk:count 53
attr interpolationmode none
attr source packetSentToUpper
attr title "packets passed up, count"
scalar simpleNetwork.host[1].udp droppedPkWrongPort:count 0
attr interpolationmode none
attr source packetDropReasonIsNoPortFound(packetDropped)
attr title "packets dropped (wrong port), count"
scalar simpleNetwork.host[1].udp droppedPkBadChecksum:count 0
attr interpolationmode none
attr source packetDropReasonIsIncorrectlyReceived(packetDropped)
attr title "packets dropped (checksum error), count"
scalar simpleNetwork.host[1].app[0] pingRxSeq:count 0
attr interpolationmode none
attr title "ping rx seq, count"
scalar simpleNetwork.host[1].app[0] pingTxSeq:count 224
attr interpolationmode none
attr title "ping tx seq, count"
scalar simpleNetwork.host[1].app[0] numOutOfOrderArrivals:last nan
attr interpolationmode none
attr title "ping out-of-order arrivals, last"
scalar simpleNetwork.host[1].app[0] numLost:last nan
attr interpolationmode none
attr title "pings lost, last"
statistic simpleNetwork.host[1].app[0] rtt:histogram
field count 0
field mean -nan
field stddev -nan
field min -nan
field max -nan
field sum 0
field sqrsum 0
attr interpolationmode none
attr title "ping round-trip time, histogram"
attr unit s
bin	-inf	0
bin	0	0
bin	1	0
scalar simpleNetwork.host[1].routing recFwdAntennaMsgSignal:count 0
attr interpolationmode none
attr title "sent antenna message, count"
scalar simpleNetwork.host[1].routing recFwdAntennaMsgSignal:max -nan
attr interpolationmode none
attr title "sent antenna message, max"
scalar simpleNetwork.host[1].routing recFwdAntennaMsgSignal:last nan
attr interpolationmode none
attr title "sent antenna message, last"
scalar simpleNetwork.host[1].routing sentAntennaMsgSignal:count 0
attr interpolationmode none
attr title "sent antenna message, count"
scalar simpleNetwork.host[1].routing sentAntennaMsgSignal:max -nan
attr interpolationmode none
attr title "sent antenna message, max"
scalar simpleNetwork.host[1].routing sentAntennaMsgSignal:last nan
attr interpolationmode none
attr title "sent antenna message, last"
scalar simpleNetwork.host[1].routing recAntennaMsgSignal:count 25
attr interpolationmode none
attr title "received antenna message, count"
scalar simpleNetwork.host[1].routing recAntennaMsgSignal:max 25
attr interpolationmode none
attr title "received antenna message, max"
scalar simpleNetwork.host[1].routing recAntennaMsgSignal:last 25
attr interpolationmode none
attr title "received antenna message, last"
scalar simpleNetwork.host[1].routing recWeightMsgSignal:count 25
attr interpolationmode none
attr title "received weight message, count"
scalar simpleNetwork.host[1].routing recWeightMsgSignal:max 25
attr interpolationmode none
attr title "received weight message, max"
scalar simpleNetwork.host[1].routing recWeightMsgSignal:last 25
attr interpolationmode none
attr title "received weight message, last"
scalar simpleNetwork.host[1].routing respMapSizeSignal:count 0
attr interpolationmode none
attr title "respMapSizeSignal, count"
scalar simpleNetwork.host[1].routing respMapSizeSignal:max -nan
attr interpolationmode none
attr title "respMapSizeSignal, max"
scalar simpleNetwork.host[1].routing respMapSizeSignal:last nan
attr interpolationmode none
attr title "respMapSizeSignal, last"
scalar simpleNetwork.host[1].routing distMapSizeSignal:count 103
attr interpolationmode none
attr title "distMapSizeSignal, count"
scalar simpleNetwork.host[1].routing distMapSizeSignal:max 1
attr interpolationmode none
attr title "distMapSizeSignal, max"
scalar simpleNetwork.host[1].routing distMapSizeSignal:last 1
attr interpolationmode none
attr title "distMapSizeSignal, last"
scalar simpleNetwork.host[1].routing sendProbSignal:count 103
attr interpolationmode none
attr title "Send probability, count"
scalar simpleNetwork.host[1].routing sendProbSignal:max 50
attr interpolationmode none
attr title "Send probability, max"
scalar simpleNetwork.host[1].routing sendProbSignal:last 50
attr interpolationmode none
attr title "Send probability, last"
scalar simpleNetwork.host[1].routing hopCountSignal:count 0
attr interpolationmode none
attr title "hop count, count"
scalar simpleNetwork.host[1].routing hopCountSignal:max -nan
attr interpolationmode none
attr title "hop count, max"
scalar simpleNetwork.host[1].routing hopCountSignal:last nan
attr interpolationmode none
attr title "hop count, last"
scalar simpleNetwork.host[1].routing nodeEndingSignal:count 13
attr interpolationmode none
attr title "Node end, count"
scalar simpleNetwork.host[1].routing nodeEndingSignal:max 228
attr interpolationmode none
attr title "Node end, max"
scalar simpleNetwork.host[1].routing nodeEndingSignal:last 228
attr interpolationmode none
attr title "Node end, last"
scalar simpleNetwork.host[1].routing batteryDecaySignal:count 2272
attr interpolationmode none
attr title "Battery decay, count"
scalar simpleNetwork.host[1].routing batteryDecaySignal:max 91
attr interpolationmode none
attr title "Battery decay, max"
scalar simpleNetwork.host[1].routing batteryDecaySignal:last 0
attr interpolationmode none
attr title "Battery decay, last"
scalar simpleNetwork.host[1].routing powerThreshSignal:count 0
attr interpolationmode none
attr title "Power thresh, count"
scalar simpleNetwork.host[1].routing powerThreshSignal:max -nan
attr interpolationmode none
attr title "Power thresh, max"
scalar simpleNetwork.host[1].routing powerThreshSignal:last nan
attr interpolationmode none
attr title "Power thresh, last"
scalar simpleNetwork.host[1].routing timeSignal:count 0
attr interpolationmode none
attr title "delay, count"
scalar simpleNetwork.host[1].routing timeSignal:max -nan
attr interpolationmode none
attr title "delay, max"
scalar simpleNetwork.host[1].routing timeSignal:last nan
attr interpolationmode none
attr title "delay, last"
scalar simpleNetwork.host[1].routing distSignal:count 0
attr interpolationmode none
attr title "Distance from sender to destination, count"
scalar simpleNetwork.host[1].routing distSignal:max -nan
attr interpolationmode none
attr title "Distance from sender to destination, max"
scalar simpleNetwork.host[1].routing distSignal:last nan
attr interpolationmode none
attr title "Distance from sender to destination, last"
scalar simpleNetwork.host[1].routing sentBrapMsgSignal:count 0
attr interpolationmode none
attr title "Number of CAIN BRAP messages sent, count"
scalar simpleNetwork.host[1].routing sentBrapMsgSignal:max -nan
attr interpolationmode none
attr title "Number of CAIN BRAP messages sent, max"
scalar simpleNetwork.host[1].routing sentBrapMsgSignal:last nan
attr interpolationmode none
attr title "Number of CAIN BRAP messages sent, last"
scalar simpleNetwork.host[1].routing recBrapMsgSignal:count 0
attr interpolationmode none
attr title "Number of CAIN BRAP messages received, count"
scalar simpleNetwork.host[1].routing recBrapMsgSignal:max -nan
attr interpolationmode none
attr title "Number of CAIN BRAP messages received, max"
scalar simpleNetwork.host[1].routing recBrapMsgSignal:last nan
attr interpolationmode none
attr title "Number of CAIN BRAP messages received, last"
scalar simpleNetwork.host[1].routing sentSprMsgSignal:count 0
attr interpolationmode none
attr title "Number of CAIN SPRAY messages sent, count"
scalar simpleNetwork.host[1].routing sentSprMsgSignal:max -nan
attr interpolationmode none
attr title "Number of CAIN SPRAY messages sent, max"
scalar simpleNetwork.host[1].routing sentSprMsgSignal:last nan
attr interpolationmode none
attr title "Number of CAIN SPRAY messages sent, last"
scalar simpleNetwork.host[1].routing recSprMsgSignal:count 0
attr interpolationmode none
attr title "Number of CAIN SPRAY messages received, count"
scalar simpleNetwork.host[1].routing recSprMsgSignal:max -nan
attr interpolationmode none
attr title "Number of CAIN SPRAY messages received, max"
scalar simpleNetwork.host[1].routing recSprMsgSignal:last nan
attr interpolationmode none
attr title "Number of CAIN SPRAY messages received, last"
scalar simpleNetwork.host[1].routing sentLarMsgSignal:count 0
attr interpolationmode none
attr title "Number of CAIN LAR messages sent, count"
scalar simpleNetwork.host[1].routing sentLarMsgSignal:max -nan
attr interpolationmode none
attr title "Number of CAIN LAR messages sent, max"
scalar simpleNetwork.host[1].routing sentLarMsgSignal:last nan
attr interpolationmode none
attr title "Number of CAIN LAR messages sent, last"
scalar simpleNetwork.host[1].routing recLarMsgSignal:count 0
attr interpolationmode none
attr title "Number of CAIN LAR messages received, count"
scalar simpleNetwork.host[1].routing recLarMsgSignal:max -nan
attr interpolationmode none
attr title "Number of CAIN LAR messages received, max"
scalar simpleNetwork.host[1].routing recLarMsgSignal:last nan
attr interpolationmode none
attr title "Number of CAIN LAR messages received, last"
scalar simpleNetwork.host[1].routing sentCainRREQFwdMsgSignal:count 0
attr interpolationmode none
attr title "Number of CAIN RREQFWD messages sent, count"
scalar simpleNetwork.host[1].routing sentCainRREQFwdMsgSignal:max -nan
attr interpolationmode none
attr title "Number of CAIN RREQFWD messages sent, max"
scalar simpleNetwork.host[1].routing sentCainRREQFwdMsgSignal:last nan
attr interpolationmode none
attr title "Number of CAIN RREQFWD messages sent, last"
scalar simpleNetwork.host[1].routing recCainRREQFwdMsgSignal:count 0
attr interpolationmode none
attr title "Number of CAIN RREQFWD messages received, count"
scalar simpleNetwork.host[1].routing recCainRREQFwdMsgSignal:max -nan
attr interpolationmode none
attr title "Number of CAIN RREQFWD messages received, max"
scalar simpleNetwork.host[1].routing recCainRREQFwdMsgSignal:last nan
attr interpolationmode none
attr title "Number of CAIN RREQFWD messages received, last"
scalar simpleNetwork.host[1].routing recCainRREPMsgSignal:count 0
attr interpolationmode none
attr title "Number of CAIN RREP messages received, count"
scalar simpleNetwork.host[1].routing recCainRREPMsgSignal:max -nan
attr interpolationmode none
attr title "Number of CAIN RREP messages received, max"
scalar simpleNetwork.host[1].routing recCainRREPMsgSignal:last nan
attr interpolationmode none
attr title "Number of CAIN RREP messages received, last"
scalar simpleNetwork.host[1].routing sentCainRREPMsgSignal:count 0
attr interpolationmode none
attr title "Number of CAIN RREP messages sent, count"
scalar simpleNetwork.host[1].routing sentCainRREPMsgSignal:max -nan
attr interpolationmode none
attr title "Number of CAIN RREP messages sent, max"
scalar simpleNetwork.host[1].routing sentCainRREPMsgSignal:last nan
attr interpolationmode none
attr title "Number of CAIN RREP messages sent, last"
scalar simpleNetwork.host[1].routing recCainRREQMsgSignal:count 0
attr interpolationmode none
attr title "Number of CAIN RREQ messages received, count"
scalar simpleNetwork.host[1].routing recCainRREQMsgSignal:max -nan
attr interpolationmode none
attr title "Number of CAIN RREQ messages received, max"
scalar simpleNetwork.host[1].routing recCainRREQMsgSignal:last nan
attr interpolationmode none
attr title "Number of CAIN RREQ messages received, last"
scalar simpleNetwork.host[1].routing sentCainRREQMsgSignal:count 0
attr interpolationmode none
attr title "Number of CAIN RREQ messages sent, count"
scalar simpleNetwork.host[1].routing sentCainRREQMsgSignal:max -nan
attr interpolationmode none
attr title "Number of CAIN RREQ messages sent, max"
scalar simpleNetwork.host[1].routing sentCainRREQMsgSignal:last nan
attr interpolationmode none
attr title "Number of CAIN RREQ messages sent, last"
scalar simpleNetwork.host[1].routing recCainErrMsgSignal:count 0
attr interpolationmode none
attr title "Number of CAIN ERR messages received, count"
scalar simpleNetwork.host[1].routing recCainErrMsgSignal:max -nan
attr interpolationmode none
attr title "Number of CAIN ERR messages received, max"
scalar simpleNetwork.host[1].routing recCainErrMsgSignal:last nan
attr interpolationmode none
attr title "Number of CAIN ERR messages received, last"
scalar simpleNetwork.host[1].routing sentCainErrMsgSignal:count 0
attr interpolationmode none
attr title "Number of CAIN ERR messages sent, count"
scalar simpleNetwork.host[1].routing sentCainErrMsgSignal:max -nan
attr interpolationmode none
attr title "Number of CAIN ERR messages sent, max"
scalar simpleNetwork.host[1].routing sentCainErrMsgSignal:last nan
attr interpolationmode none
attr title "Number of CAIN ERR messages sent, last"
scalar simpleNetwork.host[1].routing recCainHopMsgSignal:count 0
attr interpolationmode none
attr title "Number of CAIN HOP messages received, count"
scalar simpleNetwork.host[1].routing recCainHopMsgSignal:max -nan
attr interpolationmode none
attr title "Number of CAIN HOP messages received, max"
scalar simpleNetwork.host[1].routing recCainHopMsgSignal:last nan
attr interpolationmode none
attr title "Number of CAIN HOP messages received, last"
scalar simpleNetwork.host[1].routing sentCainHopMsgSignal:count 0
attr interpolationmode none
attr title "Number of CAIN HOP messages sent, count"
scalar simpleNetwork.host[1].routing sentCainHopMsgSignal:max -nan
attr interpolationmode none
attr title "Number of CAIN HOP messages sent, max"
scalar simpleNetwork.host[1].routing sentCainHopMsgSignal:last nan
attr interpolationmode none
attr title "Number of CAIN HOP messages sent, last"
scalar simpleNetwork.host[1].routing recCainRespMsgSignal:count 0
attr interpolationmode none
attr title "Number of CAIN RESP messages received, count"
scalar simpleNetwork.host[1].routing recCainRespMsgSignal:max -nan
attr interpolationmode none
attr title "Number of CAIN RESP messages received, max"
scalar simpleNetwork.host[1].routing recCainRespMsgSignal:last nan
attr interpolationmode none
attr title "Number of CAIN RESP messages received, last"
scalar simpleNetwork.host[1].routing sentCainRespMsgSignal:count 0
attr interpolationmode none
attr title "Number of CAIN RESP messages sent, count"
scalar simpleNetwork.host[1].routing sentCainRespMsgSignal:max -nan
attr interpolationmode none
attr title "Number of CAIN RESP messages sent, max"
scalar simpleNetwork.host[1].routing sentCainRespMsgSignal:last nan
attr interpolationmode none
attr title "Number of CAIN RESP messages sent, last"
scalar simpleNetwork.host[1].routing recCainReqMsgSignal:count 0
attr interpolationmode none
attr title "Number of CAIN REQ messages received, count"
scalar simpleNetwork.host[1].routing recCainReqMsgSignal:max -nan
attr interpolationmode none
attr title "Number of CAIN REQ messages received, max"
scalar simpleNetwork.host[1].routing recCainReqMsgSignal:last nan
attr interpolationmode none
attr title "Number of CAIN REQ messages received, last"
scalar simpleNetwork.host[1].routing sentCainReqMsgSignal:count 103
attr interpolationmode none
attr title "Number of CAIN REQ messages sent, count"
scalar simpleNetwork.host[1].routing sentCainReqMsgSignal:max 103
attr interpolationmode none
attr title "Number of CAIN REQ messages sent, max"
scalar simpleNetwork.host[1].routing sentCainReqMsgSignal:last 103
attr interpolationmode none
attr title "Number of CAIN REQ messages sent, last"
scalar simpleNetwork.host[1].routing sentCainFwdMsgSignal:count 0
attr interpolationmode none
attr title "Number of CAIN FWD message sent, count"
scalar simpleNetwork.host[1].routing sentCainFwdMsgSignal:max -nan
attr interpolationmode none
attr title "Number of CAIN FWD message sent, max"
scalar simpleNetwork.host[1].routing sentCainFwdMsgSignal:last nan
attr interpolationmode none
attr title "Number of CAIN FWD message sent, last"
scalar simpleNetwork.host[1].routing recCainFwdMsgSignal:mean -nan
attr interpolationmode none
attr title "Number of CAIN FWD message received, mean"
scalar simpleNetwork.host[1].routing recCainFwdMsgSignal:count 0
attr interpolationmode none
attr title "Number of CAIN FWD message received, count"
scalar simpleNetwork.host[1].routing recCainFwdMsgSignal:max -nan
attr interpolationmode none
attr title "Number of CAIN FWD message received, max"
scalar simpleNetwork.host[1].routing recCainFwdMsgSignal:last nan
attr interpolationmode none
attr title "Number of CAIN FWD message received, last"
scalar simpleNetwork.host[1].routing cainMsgSignal:count 0
attr interpolationmode none
attr title "Number of CAIN messages received, count"
scalar simpleNetwork.host[1].routing cainMsgSignal:max -nan
attr interpolationmode none
attr title "Number of CAIN messages received, max"
scalar simpleNetwork.host[1].routing cainMsgSignal:last nan
attr interpolationmode none
attr title "Number of CAIN messages received, last"
scalar simpleNetwork.host[1].routing connectedDevsSignal:count 0
attr interpolationmode none
attr title "Number of connected devices to a CH, count"
scalar simpleNetwork.host[1].routing connectedDevsSignal:max -nan
attr interpolationmode none
attr title "Number of connected devices to a CH, max"
scalar simpleNetwork.host[1].routing connectedDevsSignal:last nan
attr interpolationmode none
attr title "Number of connected devices to a CH, last"
scalar simpleNetwork.host[2].energyStorage residualEnergyCapacity:last 0
attr interpolationmode linear
attr source residualEnergyCapacityChanged
attr title "Residual energy capacity, last"
scalar simpleNetwork.host[2].lo[0].lo rcvdPkFromHl:count 0
attr interpolationmode none
attr source packetReceivedFromUpper
attr title "packets received from higher layer, count"
scalar simpleNetwork.host[2].lo[0].lo rcvdPkFromHl:sum(packetBytes) 0
attr interpolationmode none
attr source packetReceivedFromUpper
attr title "packets received from higher layer, sum(packetBytes)"
scalar simpleNetwork.host[2].lo[0].lo passedUpPk:count 0
attr interpolationmode none
attr source packetSentToUpper
attr title "packets passed to higher layer, count"
scalar simpleNetwork.host[2].lo[0].lo passedUpPk:sum(packetBytes) 0
attr interpolationmode none
attr source packetSentToUpper
attr title "packets passed to higher layer, sum(packetBytes)"
scalar simpleNetwork.host[2].wlan[0].mac.queue packetPopped:count 155
attr interpolationmode none
attr title "packet popped, count"
scalar simpleNetwork.host[2].wlan[0].mac.queue packetPopped:sum(packetBytes) 8060
attr interpolationmode none
attr title "packet popped, sum(packetBytes)"
statistic simpleNetwork.host[2].wlan[0].mac.queue queueingTime:histogram
field count 155
field mean 0
field stddev 0
field min 0
field max 0
field sum 0
field sqrsum 0
attr interpolationmode none
attr source queueingTime(packetPopped)
attr title "queueing times, histogram"
attr unit s
bin	-inf	0
bin	-0.5	0
bin	-0.48	0
bin	-0.46	0
bin	-0.44	0
bin	-0.42	0
bin	-0.4	0
bin	-0.38	0
bin	-0.36	0
bin	-0.34	0
bin	-0.32	0
bin	-0.3	0
bin	-0.28	0
bin	-0.26	0
bin	-0.24	0
bin	-0.22	0
bin	-0.2	0
bin	-0.18	0
bin	-0.16	0
bin	-0.14	0
bin	-0.12	0
bin	-0.1	0
bin	-0.08	0
bin	-0.06	0
bin	-0.04	0
bin	-0.02	0
bin	0	155
bin	0.02	0
bin	0.04	0
bin	0.06	0
bin	0.08	0
bin	0.1	0
bin	0.12	0
bin	0.14	0
bin	0.16	0
bin	0.18	0
bin	0.2	0
bin	0.22	0
bin	0.24	0
bin	0.26	0
bin	0.28	0
bin	0.3	0
bin	0.32	0
bin	0.34	0
bin	0.36	0
bin	0.38	0
bin	0.4	0
bin	0.42	0
bin	0.44	0
bin	0.46	0
bin	0.48	0
bin	0.5	0
scalar simpleNetwork.host[2].wlan[0].mac.queue queueLength:max 1
attr interpolationmode sample-hold
attr source "count(packetPushed) - count(packetPopped) - count(packetRemoved) - count(packetDropped)"
attr title "queue length, max"
scalar simpleNetwork.host[2].wlan[0].mac.queue queueLength:timeavg 0
attr interpolationmode sample-hold
attr source "count(packetPushed) - count(packetPopped) - count(packetRemoved) - count(packetDropped)"
attr title "queue length, timeavg"
scalar simpleNetwork.host[2].wlan[0].mac.queue packetPushed:count 155
attr interpolationmode none
attr title "packet pushed, count"
scalar simpleNetwork.host[2].wlan[0].mac.queue packetPushed:sum(packetBytes) 8060
attr interpolationmode none
attr title "packet pushed, sum(packetBytes)"
scalar simpleNetwork.host[2].wlan[0].mac.queue packetDropQueueOverflow:count 0
attr interpolationmode none
attr source packetDropReasonIsQueueOverflow(packetDropped)
attr title "packet drops: queue overflow, count"
scalar simpleNetwork.host[2].wlan[0].mac.queue packetDropQueueOverflow:sum(packetBytes) 0
attr interpolationmode none
attr source packetDropReasonIsQueueOverflow(packetDropped)
attr title "packet drops: queue overflow, sum(packetBytes)"
scalar simpleNetwork.host[2].wlan[0].mac.queue packetRemoved:count 0
attr interpolationmode none
attr title "packets removed, count"
scalar simpleNetwork.host[2].wlan[0].mac.queue packetRemoved:sum(packetBytes) 0
attr interpolationmode none
attr title "packets removed, sum(packetBytes)"
scalar simpleNetwork.host[2].wlan[0].mac rcvdPkFromLl:count 402
attr interpolationmode none
attr source packetReceivedFromLower
attr title "packets received from lower layer, count"
scalar simpleNetwork.host[2].wlan[0].mac rcvdPkFromLl:sum(packetBytes) 30150
attr interpolationmode none
attr source packetReceivedFromLower
attr title "packets received from lower layer, sum(packetBytes)"
scalar simpleNetwork.host[2].wlan[0].mac sentDownPk:count 155
attr interpolationmode none
attr source packetSentToLower
attr title "packets sent to lower layer, count"
scalar simpleNetwork.host[2].wlan[0].mac sentDownPk:sum(packetBytes) 11625
attr interpolationmode none
attr source packetSentToLower
attr title "packets sent to lower layer, sum(packetBytes)"
scalar simpleNetwork.host[2].wlan[0].mac rcvdPkFromHl:count 155
attr interpolationmode none
attr source packetReceivedFromUpper
attr title "packets received from higher layer, count"
scalar simpleNetwork.host[2].wlan[0].mac rcvdPkFromHl:sum(packetBytes) 8060
attr interpolationmode none
attr source packetReceivedFromUpper
attr title "packets received from higher layer, sum(packetBytes)"
scalar simpleNetwork.host[2].wlan[0].mac passedUpPk:count 264
attr interpolationmode none
attr source packetSentToUpper
attr title "packets passed to higher layer, count"
scalar simpleNetwork.host[2].wlan[0].mac passedUpPk:sum(packetBytes) 13728
attr interpolationmode none
attr source packetSentToUpper
attr title "packets passed to higher layer, sum(packetBytes)"
scalar simpleNetwork.host[2].wlan[0].mac packetDropIncorrectlyReceived:count 138
attr interpolationmode none
attr source packetDropReasonIsIncorrectlyReceived(packetDropped)
attr title "packet drop: incorrectly received, count"
scalar simpleNetwork.host[2].wlan[0].mac packetDropIncorrectlyReceived:sum(packetBytes) 10350
attr interpolationmode none
attr source packetDropReasonIsIncorrectlyReceived(packetDropped)
attr title "packet drop: incorrectly received, sum(packetBytes)"
scalar simpleNetwork.host[2].wlan[0].mac packetDropInterfaceDown:count 0
attr interpolationmode none
attr source packetDropReasonIsInterfaceDown(packetDropped)
attr title "packet drop: interface down, count"
scalar simpleNetwork.host[2].wlan[0].mac packetDropInterfaceDown:sum(packetBytes) 0
attr interpolationmode none
attr source packetDropReasonIsInterfaceDown(packetDropped)
attr title "packet drop: interface down, sum(packetBytes)"
scalar simpleNetwork.host[2].wlan[0].mac packetDropNotAddressedToUs:count 0
attr interpolationmode none
attr source packetDropReasonIsNotAddressedToUs(packetDropped)
attr title "packet drop: not addressed to us, count"
scalar simpleNetwork.host[2].wlan[0].mac packetDropNotAddressedToUs:sum(packetBytes) 0
attr interpolationmode none
attr source packetDropReasonIsNotAddressedToUs(packetDropped)
attr title "packet drop: not addressed to us, sum(packetBytes)"
scalar simpleNetwork.host[2].wlan[0].mac linkBroken:count 0
attr interpolationmode none
attr source linkBroken
attr title "link break, count"
scalar simpleNetwork.host[2].wlan[0].radio radioMode:count 4
attr interpolationmode sample-hold
attr source radioModeChanged
attr title "Radio mode, count"
scalar simpleNetwork.host[2].wlan[0].radio receptionState:count 813
attr interpolationmode sample-hold
attr source receptionStateChanged
attr title "Radio reception state, count"
scalar simpleNetwork.host[2].wlan[0].radio transmissionState:count 238
attr interpolationmode sample-hold
attr source transmissionStateChanged
attr title "Radio transmission state, count"
statistic simpleNetwork.host[2].wlan[0].radio minSnir:histogram
field count 0
field mean -nan
field stddev -nan
field min -nan
field max -nan
field sum 0
field sqrsum 0
attr source minimumSnir(packetSentToUpper)
attr title "Min SNIR, histogram"
bin	-inf	0
bin	0	0
bin	1	0
statistic simpleNetwork.host[2].wlan[0].radio packetErrorRate:histogram
field count 402
field mean 0.34328358208955
field stddev 0.47539684347096
field min 0
field max 1
field sum 138
field sqrsum 138
attr source packetErrorRate(packetSentToUpper)
attr title "Packet error rate, histogram"
bin	-inf	0
bin	0	264
bin	1	138
bin	2	0
statistic simpleNetwork.host[2].wlan[0].radio bitErrorRate:histogram
field count 402
field mean 0.34328358208955
field stddev 0.47539684347096
field min 0
field max 1
field sum 138
field sqrsum 138
attr source bitErrorRate(packetSentToUpper)
attr title "Bit error rate, histogram"
bin	-inf	0
bin	0	264
bin	1	138
bin	2	0
statistic simpleNetwork.host[2].wlan[0].radio symbolErrorRate:histogram
field count 402
field mean 0.34328358208955
field stddev 0.47539684347096
field min 0
field max 1
field sum 138
field sqrsum 138
attr source symbolErrorRate(packetSentToUpper)
attr title "Symbol error rate, histogram"
bin	-inf	0
bin	0	264
bin	1	138
bin	2	0
scalar simpleNetwork.host[2].ipv4.ip packetDropAddressResolutionFailed:count 0
attr interpolationmode none
attr source packetDropReasonIsAddressResolutionFailed(packetDropped)
attr title "packet drop: address resolution failed, count"
scalar simpleNetwork.host[2].ipv4.ip packetDropAddressResolutionFailed:sum(packetBytes) 0
attr interpolationmode none
attr source packetDropReasonIsAddressResolutionFailed(packetDropped)
attr title "packet drop: address resolution failed, sum(packetBytes)"
scalar simpleNetwork.host[2].ipv4.ip packetDropHopLimitReached:count 0
attr interpolationmode none
attr source packetDropReasonIsHopLimitReached(packetDropped)
attr title "packet drop: hop limit reached, count"
scalar simpleNetwork.host[2].ipv4.ip packetDropHopLimitReached:sum(packetBytes) 0
attr interpolationmode none
attr source packetDropReasonIsHopLimitReached(packetDropped)
attr title "packet drop: hop limit reached, sum(packetBytes)"
scalar simpleNetwork.host[2].ipv4.ip packetDropForwardingDisabled:count 0
attr interpolationmode none
attr source packetDropReasonIsForwardingDisabled(packetDropped)
attr title "packet drop: forwarding disabled, count"
scalar simpleNetwork.host[2].ipv4.ip packetDropForwardingDisabled:sum(packetBytes) 0
attr interpolationmode none
attr source packetDropReasonIsForwardingDisabled(packetDropped)
attr title "packet drop: forwarding disabled, sum(packetBytes)"
scalar simpleNetwork.host[2].ipv4.ip packetDropNoInterfaceFound:count 0
attr interpolationmode none
attr source packetDropReasonIsNoInterfaceFound(packetDropped)
attr title "packet drop: no interface found, count"
scalar simpleNetwork.host[2].ipv4.ip packetDropNoInterfaceFound:sum(packetBytes) 0
attr interpolationmode none
attr source packetDropReasonIsNoInterfaceFound(packetDropped)
attr title "packet drop: no interface found, sum(packetBytes)"
scalar simpleNetwork.host[2].ipv4.ip packetDropNoRouteFound:count 0
attr interpolationmode none
attr source packetDropReasonIsNoRouteFound(packetDropped)
attr title "packet drop: no route found, count"
scalar simpleNetwork.host[2].ipv4.ip packetDropNoRouteFound:sum(packetBytes) 0
attr interpolationmode none
attr source packetDropReasonIsNoRouteFound(packetDropped)
attr title "packet drop: no route found, sum(packetBytes)"
scalar simpleNetwork.host[2].ipv4.ip packetDropUndefined:count 0
attr interpolationmode none
[...]
attr interpolationmode none
attr source packetDropReasonIsNoRouteFound(packetDropped)
attr title "packet drop: no route found, count"
scalar simpleNetwork.antenna[4].ipv4.ip packetDropNoRouteFound:sum(packetBytes) 0
attr interpolationmode none
attr source packetDropReasonIsNoRouteFound(packetDropped)
attr title "packet drop: no route found, sum(packetBytes)"
scalar simpleNetwork.antenna[4].ipv4.ip packetDropUndefined:count 0
attr interpolationmode none
attr source packetDropReasonIsUndefined(packetDropped)
attr title "packet drop: undefined, count"
scalar simpleNetwork.antenna[4].ipv4.ip packetDropUndefined:sum(packetBytes) 0
attr interpolationmode none
attr source packetDropReasonIsUndefined(packetDropped)
attr title "packet drop: undefined, sum(packetBytes)"
scalar simpleNetwork.antenna[4].ipv4.arp arpResolutionFailed:count 0
attr title "ARP failed resolutions, count"
scalar simpleNetwork.antenna[4].ipv4.arp arpResolutionCompleted:count 0
attr title "ARP completed resolutions, count"
scalar simpleNetwork.antenna[4].ipv4.arp arpResolutionInitiated:count 0
attr title "ARP initiated resolutions, count"
scalar simpleNetwork.antenna[4].ipv4.arp arpReplySent:count 0
attr source arpReplySent
attr title "ARP replies sent, count"
scalar simpleNetwork.antenna[4].ipv4.arp arpReplySent:sum(packetBytes) 0
attr source arpReplySent
attr title "ARP replies sent, sum(packetBytes)"
scalar simpleNetwork.antenna[4].ipv4.arp arpRequestSent:count 0
attr source arpRequestSent
attr title "ARP request sent, count"
scalar simpleNetwork.antenna[4].ipv4.arp arpRequestSent:sum(packetBytes) 0
attr source arpRequestSent
attr title "ARP request sent, sum(packetBytes)"
scalar simpleNetwork.antenna[4].udp packetReceived:count 53
attr interpolationmode none
attr source packetReceived
attr title "packets received, count"
scalar simpleNetwork.antenna[4].udp packetReceived:sum(packetBytes) 1696
attr interpolationmode none
attr source packetReceived
attr title "packets received, sum(packetBytes)"
scalar simpleNetwork.antenna[4].udp packetSent:count 47
attr interpolationmode none
attr source packetSent
attr title "packets sent, count"
scalar simpleNetwork.antenna[4].udp packetSent:sum(packetBytes) 1504
attr interpolationmode none
attr source packetSent
attr title "packets sent, sum(packetBytes)"
scalar simpleNetwork.antenna[4].udp passedUpPk:count 53
attr interpolationmode none
attr source packetSentToUpper
attr title "packets passed up, count"
scalar simpleNetwork.antenna[4].udp droppedPkWrongPort:count 0
attr interpolationmode none
attr source packetDropReasonIsNoPortFound(packetDropped)
attr title "packets dropped (wrong port), count"
scalar simpleNetwork.antenna[4].udp droppedPkBadChecksum:count 0
attr interpolationmode none
attr source packetDropReasonIsIncorrectlyReceived(packetDropped)
attr title "packets dropped (checksum error), count"
scalar simpleNetwork.antenna[4].app[0] "Pings sent" 460
scalar simpleNetwork.antenna[4].app[0] "ping loss rate (%)" 100
scalar simpleNetwork.antenna[4].app[0] "ping out-of-order rate (%)" 0
scalar simpleNetwork.antenna[4].app[0] pingRxSeq:count 0
attr interpolationmode none
attr title "ping rx seq, count"
scalar simpleNetwork.antenna[4].app[0] pingTxSeq:count 460
attr interpolationmode none
attr title "ping tx seq, count"
scalar simpleNetwork.antenna[4].app[0] numOutOfOrderArrivals:last nan
attr interpolationmode none
attr title "ping out-of-order arrivals, last"
scalar simpleNetwork.antenna[4].app[0] numLost:last nan
attr interpolationmode none
attr title "pings lost, last"
statistic simpleNetwork.antenna[4].app[0] rtt:histogram
field count 0
field mean -nan
field stddev -nan
field min -nan
field max -nan
field sum 0
field sqrsum 0
attr interpolationmode none
attr title "ping round-trip time, histogram"
attr unit s
bin	-inf	0
bin	0	0
bin	1	0
scalar simpleNetwork.antenna[4].routing recFwdAntennaMsgSignal:count 0
attr interpolationmode none
attr title "sent antenna message, count"
scalar simpleNetwork.antenna[4].routing recFwdAntennaMsgSignal:max -nan
attr interpolationmode none
attr title "sent antenna message, max"
scalar simpleNetwork.antenna[4].routing recFwdAntennaMsgSignal:last nan
attr interpolationmode none
attr title "sent antenna message, last"
scalar simpleNetwork.antenna[4].routing sentAntennaMsgSignal:count 46
attr interpolationmode none
attr title "sent antenna message, count"
scalar simpleNetwork.antenna[4].routing sentAntennaMsgSignal:max 46
attr interpolationmode none
attr title "sent antenna message, max"
scalar simpleNetwork.antenna[4].routing sentAntennaMsgSignal:last 46
attr interpolationmode none
attr title "sent antenna message, last"
scalar simpleNetwork.antenna[4].routing recAntennaMsgSignal:count 0
attr interpolationmode none
attr title "received antenna message, count"
scalar simpleNetwork.antenna[4].routing recAntennaMsgSignal:max -nan
attr interpolationmode none
attr title "received antenna message, max"
scalar simpleNetwork.antenna[4].routing recAntennaMsgSignal:last nan
attr interpolationmode none
attr title "received antenna message, last"
scalar simpleNetwork.antenna[4].routing recWeightMsgSignal:count 27
attr interpolationmode none
attr title "received weight message, count"
scalar simpleNetwork.antenna[4].routing recWeightMsgSignal:max 27
attr interpolationmode none
attr title "received weight message, max"
scalar simpleNetwork.antenna[4].routing recWeightMsgSignal:last 27
attr interpolationmode none
attr title "received weight message, last"
scalar simpleNetwork.antenna[4].routing respMapSizeSignal:count 0
attr interpolationmode none
attr title "respMapSizeSignal, count"
scalar simpleNetwork.antenna[4].routing respMapSizeSignal:max -nan
attr interpolationmode none
attr title "respMapSizeSignal, max"
scalar simpleNetwork.antenna[4].routing respMapSizeSignal:last nan
attr interpolationmode none
attr title "respMapSizeSignal, last"
scalar simpleNetwork.antenna[4].routing distMapSizeSignal:count 0
attr interpolationmode none
attr title "distMapSizeSignal, count"
scalar simpleNetwork.antenna[4].routing distMapSizeSignal:max -nan
attr interpolationmode none
attr title "distMapSizeSignal, max"
scalar simpleNetwork.antenna[4].routing distMapSizeSignal:last nan
attr interpolationmode none
attr title "distMapSizeSignal, last"
scalar simpleNetwork.antenna[4].routing sendProbSignal:count 0
attr interpolationmode none
attr title "Send probability, count"
scalar simpleNetwork.antenna[4].routing sendProbSignal:max -nan
attr interpolationmode none
attr title "Send probability, max"
scalar simpleNetwork.antenna[4].routing sendProbSignal:last nan
attr interpolationmode none
attr title "Send probability, last"
scalar simpleNetwork.antenna[4].routing hopCountSignal:count 1
attr interpolationmode none
attr title "hop count, count"
scalar simpleNetwork.antenna[4].routing hopCountSignal:max 1
attr interpolationmode none
attr title "hop count, max"
scalar simpleNetwork.antenna[4].routing hopCountSignal:last 1
attr interpolationmode none
attr title "hop count, last"
scalar simpleNetwork.antenna[4].routing nodeEndingSignal:count 0
attr interpolationmode none
attr title "Node end, count"
scalar simpleNetwork.antenna[4].routing nodeEndingSignal:max -nan
attr interpolationmode none
attr title "Node end, max"
scalar simpleNetwork.antenna[4].routing nodeEndingSignal:last nan
attr interpolationmode none
attr title "Node end, last"
scalar simpleNetwork.antenna[4].routing batteryDecaySignal:count 0
attr interpolationmode none
attr title "Battery decay, count"
scalar simpleNetwork.antenna[4].routing batteryDecaySignal:max -nan
attr interpolationmode none
attr title "Battery decay, max"
scalar simpleNetwork.antenna[4].routing batteryDecaySignal:last nan
attr interpolationmode none
attr title "Battery decay, last"
scalar simpleNetwork.antenna[4].routing powerThreshSignal:count 0
attr interpolationmode none
attr title "Power thresh, count"
scalar simpleNetwork.antenna[4].routing powerThreshSignal:max -nan
attr interpolationmode none
attr title "Power thresh, max"
scalar simpleNetwork.antenna[4].routing powerThreshSignal:last nan
attr interpolationmode none
attr title "Power thresh, last"
scalar simpleNetwork.antenna[4].routing timeSignal:count 0
attr interpolationmode none
attr title "delay, count"
scalar simpleNetwork.antenna[4].routing timeSignal:max -nan
attr interpolationmode none
attr title "delay, max"
scalar simpleNetwork.antenna[4].routing timeSignal:last nan
attr interpolationmode none
attr title "delay, last"
scalar simpleNetwork.antenna[4].routing distSignal:count 1
attr interpolationmode none
attr title "Distance from sender to destination, count"
scalar simpleNetwork.antenna[4].routing distSignal:max 57.662350858849
attr interpolationmode none
attr title "Distance from sender to destination, max"
scalar simpleNetwork.antenna[4].routing distSignal:last 57.662350858849
attr interpolationmode none
attr title "Distance from sender to destination, last"
scalar simpleNetwork.antenna[4].routing sentBrapMsgSignal:count 0
attr interpolationmode none
attr title "Number of CAIN BRAP messages sent, count"
scalar simpleNetwork.antenna[4].routing sentBrapMsgSignal:max -nan
attr interpolationmode none
attr title "Number of CAIN BRAP messages sent, max"
scalar simpleNetwork.antenna[4].routing sentBrapMsgSignal:last nan
attr interpolationmode none
attr title "Number of CAIN BRAP messages sent, last"
scalar simpleNetwork.antenna[4].routing recBrapMsgSignal:count 0
attr interpolationmode none
attr title "Number of CAIN BRAP messages received, count"
scalar simpleNetwork.antenna[4].routing recBrapMsgSignal:max -nan
attr interpolationmode none
attr title "Number of CAIN BRAP messages received, max"
scalar simpleNetwork.antenna[4].routing recBrapMsgSignal:last nan
attr interpolationmode none
attr title "Number of CAIN BRAP messages received, last"
scalar simpleNetwork.antenna[4].routing sentSprMsgSignal:count 0
attr interpolationmode none
attr title "Number of CAIN SPRAY messages sent, count"
scalar simpleNetwork.antenna[4].routing sentSprMsgSignal:max -nan
attr interpolationmode none
attr title "Number of CAIN SPRAY messages sent, max"
scalar simpleNetwork.antenna[4].routing sentSprMsgSignal:last nan
attr interpolationmode none
attr title "Number of CAIN SPRAY messages sent, last"
scalar simpleNetwork.antenna[4].routing recSprMsgSignal:count 0
attr interpolationmode none
attr title "Number of CAIN SPRAY messages received, count"
scalar simpleNetwork.antenna[4].routing recSprMsgSignal:max -nan
attr interpolationmode none
attr title "Number of CAIN SPRAY messages received, max"
scalar simpleNetwork.antenna[4].routing recSprMsgSignal:last nan
attr interpolationmode none
attr title "Number of CAIN SPRAY messages received, last"
scalar simpleNetwork.antenna[4].routing sentLarMsgSignal:count 0
attr interpolationmode none
attr title "Number of CAIN LAR messages sent, count"
scalar simpleNetwork.antenna[4].routing sentLarMsgSignal:max -nan
attr interpolationmode none
attr title "Number of CAIN LAR messages sent, max"
scalar simpleNetwork.antenna[4].routing sentLarMsgSignal:last nan
attr interpolationmode none
attr title "Number of CAIN LAR messages sent, last"
scalar simpleNetwork.antenna[4].routing recLarMsgSignal:count 0
attr interpolationmode none
attr title "Number of CAIN LAR messages received, count"
scalar simpleNetwork.antenna[4].routing recLarMsgSignal:max -nan
attr interpolationmode none
attr title "Number of CAIN LAR messages received, max"
scalar simpleNetwork.antenna[4].routing recLarMsgSignal:last nan
attr interpolationmode none
attr title "Number of CAIN LAR messages received, last"
scalar simpleNetwork.antenna[4].routing sentCainRREQFwdMsgSignal:count 0
attr interpolationmode none
attr title "Number of CAIN RREQFWD messages sent, count"
scalar simpleNetwork.antenna[4].routing sentCainRREQFwdMsgSignal:max -nan
attr interpolationmode none
attr title "Number of CAIN RREQFWD messages sent, max"
scalar simpleNetwork.antenna[4].routing sentCainRREQFwdMsgSignal:last nan
attr interpolationmode none
attr title "Number of CAIN RREQFWD messages sent, last"
scalar simpleNetwork.antenna[4].routing recCainRREQFwdMsgSignal:count 0
attr interpolationmode none
attr title "Number of CAIN RREQFWD messages received, count"
scalar simpleNetwork.antenna[4].routing recCainRREQFwdMsgSignal:max -nan
attr interpolationmode none
attr title "Number of CAIN RREQFWD messages received, max"
scalar simpleNetwork.antenna[4].routing recCainRREQFwdMsgSignal:last nan
attr interpolationmode none
attr title "Number of CAIN RREQFWD messages received, last"
scalar simpleNetwork.antenna[4].routing recCainRREPMsgSignal:count 0
attr interpolationmode none
attr title "Number of CAIN RREP messages received, count"
scalar simpleNetwork.antenna[4].routing recCainRREPMsgSignal:max -nan
attr interpolationmode none
attr title "Number of CAIN RREP messages received, max"
scalar simpleNetwork.antenna[4].routing recCainRREPMsgSignal:last nan
attr interpolationmode none
attr title "Number of CAIN RREP messages received, last"
scalar simpleNetwork.antenna[4].routing sentCainRREPMsgSignal:count 0
attr interpolationmode none
attr title "Number of CAIN RREP messages sent, count"
scalar simpleNetwork.antenna[4].routing sentCainRREPMsgSignal:max -nan
attr interpolationmode none
attr title "Number of CAIN RREP messages sent, max"
scalar simpleNetwork.antenna[4].routing sentCainRREPMsgSignal:last nan
attr interpolationmode none
attr title "Number of CAIN RREP messages sent, last"
scalar simpleNetwork.antenna[4].routing recCainRREQMsgSignal:count 0
attr interpolationmode none
attr title "Number of CAIN RREQ messages received, count"
scalar simpleNetwork.antenna[4].routing recCainRREQMsgSignal:max -nan
attr interpolationmode none
attr title "Number of CAIN RREQ messages received, max"
scalar simpleNetwork.antenna[4].routing recCainRREQMsgSignal:last nan
attr interpolationmode none
attr title "Number of CAIN RREQ messages received, last"
scalar simpleNetwork.antenna[4].routing sentCainRREQMsgSignal:count 0
attr interpolationmode none
attr title "Number of CAIN RREQ messages sent, count"
scalar simpleNetwork.antenna[4].routing sentCainRREQMsgSignal:max -nan
attr interpolationmode none
attr title "Number of CAIN RREQ messages sent, max"
scalar simpleNetwork.antenna[4].routing sentCainRREQMsgSignal:last nan
attr interpolationmode none
attr title "Number of CAIN RREQ messages sent, last"
scalar simpleNetwork.antenna[4].routing recCainErrMsgSignal:count 0
attr interpolationmode none
attr title "Number of CAIN ERR messages received, count"
scalar simpleNetwork.antenna[4].routing recCainErrMsgSignal:max -nan
attr interpolationmode none
attr title "Number of CAIN ERR messages received, max"
scalar simpleNetwork.antenna[4].routing recCainErrMsgSignal:last nan
attr interpolationmode none
attr title "Number of CAIN ERR messages received, last"
scalar simpleNetwork.antenna[4].routing sentCainErrMsgSignal:count 0
attr interpolationmode none
attr title "Number of CAIN ERR messages sent, count"
scalar simpleNetwork.antenna[4].routing sentCainErrMsgSignal:max -nan
attr interpolationmode none
attr title "Number of CAIN ERR messages sent, max"
scalar simpleNetwork.antenna[4].routing sentCainErrMsgSignal:last nan
attr interpolationmode none
attr title "Number of CAIN ERR messages sent, last"
scalar simpleNetwork.antenna[4].routing recCainHopMsgSignal:count 0
attr interpolationmode none
attr title "Number of CAIN HOP messages received, count"
scalar simpleNetwork.antenna[4].routing recCainHopMsgSignal:max -nan
attr interpolationmode none
attr title "Number of CAIN HOP messages received, max"
scalar simpleNetwork.antenna[4].routing recCainHopMsgSignal:last nan
attr interpolationmode none
attr title "Number of CAIN HOP messages received, last"
scalar simpleNetwork.antenna[4].routing sentCainHopMsgSignal:count 0
attr interpolationmode none
attr title "Number of CAIN HOP messages sent, count"
scalar simpleNetwork.antenna[4].routing sentCainHopMsgSignal:max -nan
attr interpolationmode none
attr title "Number of CAIN HOP messages sent, max"
scalar simpleNetwork.antenna[4].routing sentCainHopMsgSignal:last nan
attr interpolationmode none
attr title "Number of CAIN HOP messages sent, last"
scalar simpleNetwork.antenna[4].routing recCainRespMsgSignal:count 0
attr interpolationmode none
attr title "Number of CAIN RESP messages received, count"
scalar simpleNetwork.antenna[4].routing recCainRespMsgSignal:max -nan
attr interpolationmode none
attr title "Number of CAIN RESP messages received, max"
scalar simpleNetwork.antenna[4].routing recCainRespMsgSignal:last nan
attr interpolationmode none
attr title "Number of CAIN RESP messages received, last"
scalar simpleNetwork.antenna[4].routing sentCainRespMsgSignal:count 0
attr interpolationmode none
attr title "Number of CAIN RESP messages sent, count"
scalar simpleNetwork.antenna[4].routing sentCainRespMsgSignal:max -nan
attr interpolationmode none
attr title "Number of CAIN RESP messages sent, max"
scalar simpleNetwork.antenna[4].routing sentCainRespMsgSignal:last nan
attr interpolationmode none
attr title "Number of CAIN RESP messages sent, last"
scalar simpleNetwork.antenna[4].routing recCainReqMsgSignal:count 0
attr interpolationmode none
attr title "Number of CAIN REQ messages received, count"
scalar simpleNetwork.antenna[4].routing recCainReqMsgSignal:max -nan
attr interpolationmode none
attr title "Number of CAIN REQ messages received, max"
scalar simpleNetwork.antenna[4].routing recCainReqMsgSignal:last nan
attr interpolationmode none
attr title "Number of CAIN REQ messages received, last"
scalar simpleNetwork.antenna[4].routing sentCainReqMsgSignal:count 0
attr interpolationmode none
attr title "Number of CAIN REQ messages sent, count"
scalar simpleNetwork.antenna[4].routing sentCainReqMsgSignal:max -nan
attr interpolationmode none
attr title "Number of CAIN REQ messages sent, max"
scalar simpleNetwork.antenna[4].routing sentCainReqMsgSignal:last nan
attr interpolationmode none
attr title "Number of CAIN REQ messages sent, last"
scalar simpleNetwork.antenna[4].routing sentCainFwdMsgSignal:count 0
attr interpolationmode none
attr title "Number of CAIN FWD message sent, count"
scalar simpleNetwork.antenna[4].routing sentCainFwdMsgSignal:max -nan
attr interpolationmode none
attr title "Number of CAIN FWD message sent, max"
scalar simpleNetwork.antenna[4].routing sentCainFwdMsgSignal:last nan
attr interpolationmode none
attr title "Number of CAIN FWD message sent, last"
scalar simpleNetwork.antenna[4].routing recCainFwdMsgSignal:mean 1
attr interpolationmode none
attr title "Number of CAIN FWD message received, mean"
scalar simpleNetwork.antenna[4].routing recCainFwdMsgSignal:count 1
attr interpolationmode none
attr title "Number of CAIN FWD message received, count"
scalar simpleNetwork.antenna[4].routing recCainFwdMsgSignal:max 1
attr interpolationmode none
attr title "Number of CAIN FWD message received, max"
scalar simpleNetwork.antenna[4].routing recCainFwdMsgSignal:last 1
attr interpolationmode none
attr title "Number of CAIN FWD message received, last"
scalar simpleNetwork.antenna[4].routing cainMsgSignal:count 1
attr interpolationmode none
attr title "Number of CAIN messages received, count"
scalar simpleNetwork.antenna[4].routing cainMsgSignal:max 1
attr interpolationmode none
attr title "Number of CAIN messages received, max"
scalar simpleNetwork.antenna[4].routing cainMsgSignal:last 1
attr interpolationmode none
attr title "Number of CAIN messages received, last"
scalar simpleNetwork.antenna[4].routing connectedDevsSignal:count 0
attr interpolationmode none
attr title "Number of connected devices to a CH, count"
scalar simpleNetwork.antenna[4].routing connectedDevsSignal:max -nan
attr interpolationmode none
attr title "Number of connected devices to a CH, max"
scalar simpleNetwork.antenna[4].routing connectedDevsSignal:last nan
attr interpolationmode none
attr title "Number of connected devices to a CH, last"

